2024_89_CemigReconfigurationCases/1_AlimsCemig/MRND218/MRND218SegmentosMT.dss
new line.TR12596283 bus1=BMT9205200B.1.2.3,bus2=BMT9205198B.1.2.3,Phases=3,Linecode=CABA06_3_3,Length=0.025002000,Units=km
new line.TR12596284 bus1=BMT9205198B.1.2.3,bus2=BMT1798270B.1.2.3,Phases=3,Linecode=CABA06_3_3,Length=0.038836000,Units=km
new line.TR12596285 bus1=BMT1798270B.1.2.3,bus2=BMT169824521.1.2.3,Phases=3,Linecode=CABA06_3_3,Length=0.031067000,Units=km
new line.TR12747211 bus1=BMT171425334.1.2.3,bus2=BMT2258569B.1.2.3,Phases=3,Linecode=CABA06_3_3,Length=0.044049000,Units=km
new line.TR12747212 bus1=BMT2258569B.1.2.3,bus2=BMT171425336.1.2.3,Phases=3,Linecode=CABA06_3_3,Length=0.045807000,Units=km
new line.TR1378550 bus1=BMT1787056B.1.2.3,bus2=BMT164042346.1.2.3,Phases=3,Linecode=CABA08_3_3,Length=0.033959000,Units=km
new line.TR1378557 bus1=BMT164042346.1.2.3,bus2=BMT1787070B.1.2.3,Phases=3,Linecode=CABA08_3_3,Length=0.035513000,Units=km
new line.TR1378564 bus1=BMT1787070B.1.2.3,bus2=BMT1787077B.1.2.3,Phases=3,Linecode=CABA08_3_3,Length=0.034528000,Units=km
new line.TR1378571 bus1=BMT1787077B.1.2.3,bus2=BMT1787084B.1.2.3,Phases=3,Linecode=CABA08_3_3,Length=0.034208000,Units=km
new line.TR1378578 bus1=BMT1787084B.1.2.3,bus2=BMT1787091B.1.2.3,Phases=3,Linecode=CABA08_3_3,Length=0.027297000,Units=km
new line.TR1378585 bus1=BMT1787091B.1.2.3,bus2=BMT1789828B.1.2.3,Phases=3,Linecode=CABA08_3_3,Length=0.030416000,Units=km
new line.TR1379117 bus1=BMT1788071B.1.2.3,bus2=BMT173134734.1.2.3,Phases=3,Linecode=CABA06_3_3,Length=0.050640000,Units=km
new line.TR1379124 bus1=BMT173134730.1.2.3,bus2=BMT1788169B.1.2.3,Phases=3,Linecode=CABA06_3_3,Length=0.031830000,Units=km
new line.TR1379131 bus1=BMT173134730.3,bus2=BMT1788176B.3,Phases=1,Linecode=CAB103_3_1,Length=0.033244000,Units=km
new line.TR1379138 bus1=BMT1788085B.1.2.3,bus2=BMT173134732.1.2.3,Phases=3,Linecode=CAB103_3_3,Length=0.040016000,Units=km
new line.TR1379145 bus1=BMT173134732.1.2.3,bus2=BMT1788099B.1.2.3,Phases=3,Linecode=CABA06_3_3,Length=0.042430000,Units=km
new line.TR1379152 bus1=BMT1788099B.1.2.3,bus2=BMT1788071B.1.2.3,Phases=3,Linecode=CABA06_3_3,Length=0.041198000,Units=km
new line.TR1379159 bus1=BMT1788106B.1.2.3,bus2=BMT2752237B.1.2.3,Phases=3,Linecode=CAB103_3_3,Length=0.022805000,Units=km
new line.TR1379166 bus1=BMT1788113B.1.2.3,bus2=BMT173134731.1.2.3,Phases=3,Linecode=CAB103_3_3,Length=0.035131000,Units=km
new line.TR1379173 bus1=BMT1788120B.1.2.3,bus2=BMT1788106B.1.2.3,Phases=3,Linecode=CAB103_3_3,Length=0.020617000,Units=km
new line.TR1379180 bus1=BMT1788162B.1.2.3,bus2=BMT173134735.1.2.3,Phases=3,Linecode=CABA06_3_3,Length=0.033244000,Units=km
new line.TR1379187 bus1=BMT1788169B.1.2.3,bus2=BMT1788162B.1.2.3,Phases=3,Linecode=CABA06_3_3,Length=0.033973000,Units=km
new line.TR1379194 bus1=BMT1788176B.3,bus2=BMT1788183B.3,Phases=1,Linecode=CAB103_3_1,Length=0.036800000,Units=km
new line.TR1379201 bus1=BMT1788183B.3,bus2=BMT1788197B.3,Phases=1,Linecode=CAB103_3_1,Length=0.023024000,Units=km
new line.TR1379208 bus1=BMT1788197B.3,bus2=BMT1788204B.3,Phases=1,Linecode=CAB103_3_1,Length=0.027661000,Units=km
new line.TR1379215 bus1=BMT1788204B.3,bus2=BMT1788211B.3,Phases=1,Linecode=CAB103_3_1,Length=0.031893000,Units=km
new line.TR1379222 bus1=BMT1788211B.3,bus2=BMT173134736.3,Phases=1,Linecode=CAB103_3_1,Length=0.043050000,Units=km
new line.TR1379355 bus1=BMT1788610B.1.2.3,bus2=BMT153530146.1.2.3,Phases=3,Linecode=CAB104_3_3,Length=0.037124000,Units=km
new line.TR1379362 bus1=BMT1788617B.1.2.3,bus2=BMT1788610B.1.2.3,Phases=3,Linecode=CAB104_3_3,Length=0.037486000,Units=km
new line.TR1379369 bus1=BMT153530145.1.2.3,bus2=BMT1788617B.1.2.3,Phases=3,Linecode=CAB104_3_3,Length=0.040314000,Units=km
new line.TR1379600 bus1=BMT1788932B.1.2.3,bus2=BMT173134727.1.2.3,Phases=3,Linecode=CABA06_3_3,Length=0.022827000,Units=km
new line.TR1379607 bus1=BMT173134725.1.2.3,bus2=BMT173134726.1.2.3,Phases=3,Linecode=CABA06_3_3,Length=0.027589000,Units=km
new line.TR1379614 bus1=BMT1788960B.1.2.3,bus2=BMT173134725.1.2.3,Phases=3,Linecode=CAB103_3_3,Length=0.033244000,Units=km
new line.TR1379628 bus1=BMT173134723.1.2.3,bus2=BMT173134724.1.2.3,Phases=3,Linecode=CAB102_3_3,Length=0.038900000,Units=km
new line.TR1379719 bus1=BMT1789156B.1.2.3,bus2=BMT1789163B.1.2.3,Phases=3,Linecode=CAB104_3_3,Length=0.009850000,Units=km
new line.TR1379726 bus1=BMT1789163B.1.2.3,bus2=BMT1789184B.1.2.3,Phases=3,Linecode=CAB104_3_3,Length=0.028795000,Units=km
new line.TR1379733 bus1=BMT1789184B.1.2.3,bus2=BMT167980244.1.2.3,Phases=3,Linecode=CAB104_3_3,Length=0.034061000,Units=km
new line.TR1379740 bus1=BMT1789205B.1.2.3,bus2=BMT167980247.1.2.3,Phases=3,Linecode=CAB102_3_3,Length=0.036718000,Units=km
new line.TR1379747 bus1=BMT167980244.1.2.3,bus2=BMT1789205B.1.2.3,Phases=3,Linecode=CAB102_3_3,Length=0.008063000,Units=km
new line.TR1379754 bus1=BMT167980244.1.2.3,bus2=BMT167980242.1.2.3,Phases=3,Linecode=CAB104_3_3,Length=0.007072000,Units=km
new line.TR1379768 bus1=BMT1789317B.1.2.3,bus2=BMT1789156B.1.2.3,Phases=3,Linecode=CAB104_3_3,Length=0.029549000,Units=km
new line.TR1379775 bus1=BMT167980246.1.2.3,bus2=BMT1789317B.1.2.3,Phases=3,Linecode=CAB104_3_3,Length=0.029157000,Units=km
new line.TR1379782 bus1=BMT1789345B.1.2.3,bus2=BMT167980246.1.2.3,Phases=3,Linecode=CAB104_3_3,Length=0.030466000,Units=km
new line.TR1379789 bus1=BMT167980248.1.2.3,bus2=BMT1789366B.1.2.3,Phases=3,Linecode=CAB104_3_3,Length=0.031783000,Units=km
new line.TR1379796 bus1=BMT1789359B.1.2.3,bus2=BMT1789345B.1.2.3,Phases=3,Linecode=CAB104_3_3,Length=0.030466000,Units=km
new line.TR1379810 bus1=BMT1789373B.1.2.3,bus2=BMT1789359B.1.2.3,Phases=3,Linecode=CAB104_3_3,Length=0.028233000,Units=km
new line.TR1379880 bus1=BMT169612969.1.2.3,bus2=BMT123383040.1.2.3,Phases=3,Linecode=CABA08_3_3,Length=0.019107000,Units=km
new line.TR1380062 bus1=BMT1789828B.1.2.3,bus2=BMT1789835B.1.2.3,Phases=3,Linecode=CABA08_3_3,Length=0.033959000,Units=km
new line.TR1380069 bus1=BMT1789835B.1.2.3,bus2=BMT1789842B.1.2.3,Phases=3,Linecode=CABA08_3_3,Length=0.033959000,Units=km
new line.TR1380076 bus1=BMT1789842B.1.2.3,bus2=BMT164042347.1.2.3,Phases=3,Linecode=CABA08_3_3,Length=0.033959000,Units=km
new line.TR1380083 bus1=BMT169612970.1.2.3,bus2=BMT169612969.1.2.3,Phases=3,Linecode=CABA08_3_3,Length=0.019418000,Units=km
new line.TR1380090 bus1=BMT1789863B.1.2.3,bus2=BMT169612970.1.2.3,Phases=3,Linecode=CABA08_3_3,Length=0.035017000,Units=km
new line.TR1380097 bus1=BMT1789870B.1.2.3,bus2=BMT1789863B.1.2.3,Phases=3,Linecode=CABA08_3_3,Length=0.035060000,Units=km
new line.TR1380104 bus1=BMT123383061.1.2.3,bus2=BMT1789870B.1.2.3,Phases=3,Linecode=CABA08_3_3,Length=0.036058000,Units=km
new line.TR1380111 bus1=BMT123383061.1.2.3,bus2=BMT1789884B.1.2.3,Phases=3,Linecode=CABA08_3_3,Length=0.023089000,Units=km
new line.TR12169306 bus1=BMT156501950.1.2.3,bus2=BMT150181833.1.2.3,Phases=3,Linecode=CAB103_3_3,Length=0.013603000,Units=km
new line.TR12612906 bus1=BMT169824520.1.2.3,bus2=BMT1797808B.1.2.3,Phases=3,Linecode=CAB104_3_3,Length=0.034208000,Units=km
new line.TR12612918 bus1=BMT9205200B.1.2.3,bus2=BMT9222580B.1.2.3,Phases=3,Linecode=CABA06_3_3,Length=0.020617000,Units=km
new line.TR12612920 bus1=BMT169824519.1.2.3,bus2=BMT9222580B.1.2.3,Phases=3,Linecode=CABA06_3_3,Length=0.023772000,Units=km
new line.TR12800566 bus1=BMT173134726.1.2.3,bus2=BMT173134728.1.2.3,Phases=3,Linecode=CABA06_3_3,Length=0.015622000,Units=km
new line.TR1383947 bus1=BMT1796590B.1.2.3,bus2=BMT1796660B.1.2.3,Phases=3,Linecode=CAB104_3_3,Length=0.037003000,Units=km
new line.TR1383968 bus1=BMT154935196.1.2.3,bus2=BMT1796674B.1.2.3,Phases=3,Linecode=CABA06_3_3,Length=0.033958000,Units=km
new line.TR1383975 bus1=BMT154935195.1.2.3,bus2=BMT154935196.1.2.3,Phases=3,Linecode=CABA06_3_3,Length=0.036003000,Units=km
new line.TR1383982 bus1=BMT1796660B.1.2.3,bus2=BMT154935195.1.2.3,Phases=3,Linecode=CAB104_3_3,Length=0.035003000,Units=km
new line.TR1383989 bus1=BMT1796674B.1.2.3,bus2=BMT3208322B.1.2.3,Phases=3,Linecode=CABA06_3_3,Length=0.010001000,Units=km
new line.TR1384003 bus1=BMT154935197.1.2.3,bus2=BMT3208315B.1.2.3,Phases=3,Linecode=CABA06_3_3,Length=0.036141000,Units=km
new line.TR1384010 bus1=BMT1796688B.1.2.3,bus2=BMT157060573.1.2.3,Phases=3,Linecode=CAB102_3_3,Length=0.031625000,Units=km
new line.TR1384017 bus1=BMT157060573.1.2.3,bus2=BMT157060574.1.2.3,Phases=3,Linecode=CAB102_3_3,Length=0.035738000,Units=km
new line.TR1384024 bus1=BMT157060574.1.2.3,bus2=BMT1796709B.1.2.3,Phases=3,Linecode=CAB902_4_3,Length=0.032018000,Units=km
new line.TR1384038 bus1=BMT1796709B.1.2.3,bus2=BMT1796716B.1.2.3,Phases=3,Linecode=CAB902_4_3,Length=0.029020000,Units=km
new line.TR1384045 bus1=BMT1796716B.1.2.3,bus2=BMT1796723B.1.2.3,Phases=3,Linecode=CAB902_4_3,Length=0.029002000,Units=km
new line.TR1384052 bus1=BMT1796723B.1.2.3,bus2=BMT1795036B.1.2.3,Phases=3,Linecode=CAB902_4_3,Length=0.031323000,Units=km
new line.TR1384059 bus1=BMT1796744B.1.2.3,bus2=BMT1796758B.1.2.3,Phases=3,Linecode=CABA06_3_3,Length=0.015558000,Units=km
new line.TR1384066 bus1=BMT157060578.1.2.3,bus2=BMT157060579.1.2.3,Phases=3,Linecode=CAB905_4_3,Length=0.032002000,Units=km
new line.TR1384073 bus1=BMT1796758B.1.2.3,bus2=BMT157060577.1.2.3,Phases=3,Linecode=CABA06_3_3,Length=0.010199000,Units=km
new line.TR1384080 bus1=BMT157060577.1.2.3,bus2=BMT123383397.1.2.3,Phases=3,Linecode=CABA06_3_3,Length=0.035905000,Units=km
new line.TR1384087 bus1=BMT157060652.1.2.3,bus2=BMT1796779B.1.2.3,Phases=3,Linecode=CABA06_3_3,Length=0.037124000,Units=km
new line.TR1384094 bus1=BMT1796779B.1.2.3,bus2=BMT157060653.1.2.3,Phases=3,Linecode=CABA06_3_3,Length=0.009001000,Units=km
new line.TR1384115 bus1=BMT1796849B.1.2.3,bus2=BMT1796856B.1.2.3,Phases=3,Linecode=CAB102_3_3,Length=0.034061000,Units=km
new line.TR1384122 bus1=BMT1796856B.1.2.3,bus2=BMT1796905B.1.2.3,Phases=3,Linecode=CAB102_3_3,Length=0.032252000,Units=km
new line.TR1384129 bus1=BMT1796863B.1.2.3,bus2=BMT1796345B.1.2.3,Phases=3,Linecode=CAB102_3_3,Length=0.032065000,Units=km
new line.TR1384136 bus1=BMT1796870B.1.2.3,bus2=BMT1796863B.1.2.3,Phases=3,Linecode=CAB102_3_3,Length=0.029157000,Units=km
new line.TR1384143 bus1=BMT1796877B.1.2.3,bus2=BMT1796870B.1.2.3,Phases=3,Linecode=CAB102_3_3,Length=0.032065000,Units=km
new line.TR1384150 bus1=BMT1796884B.1.2.3,bus2=BMT1796877B.1.2.3,Phases=3,Linecode=CAB102_3_3,Length=0.033063000,Units=km
new line.TR1384157 bus1=BMT161590738.1.2.3,bus2=BMT1796884B.1.2.3,Phases=3,Linecode=CAB102_3_3,Length=0.032065000,Units=km
new line.TR1384164 bus1=BMT1796898B.1.2.3,bus2=BMT161590738.1.2.3,Phases=3,Linecode=CAB102_3_3,Length=0.030069000,Units=km
new line.TR1384171 bus1=BMT1796905B.1.2.3,bus2=BMT1796898B.1.2.3,Phases=3,Linecode=CAB102_3_3,Length=0.035017000,Units=km
new line.TR1384178 bus1=BMT123383243.1.2.3,bus2=BMT1796933B.1.2.3,Phases=3,Linecode=CAB104_3_3,Length=0.032805000,Units=km
new line.TR1384185 bus1=BMT1796933B.1.2.3,bus2=BMT1796954B.1.2.3,Phases=3,Linecode=CAB104_3_3,Length=0.032805000,Units=km
new line.TR1384192 bus1=BMT1796954B.1.2.3,bus2=BMT153185004.1.2.3,Phases=3,Linecode=CAB104_3_3,Length=0.031403000,Units=km
new line.TR1384199 bus1=BMT1796975B.1.2.3,bus2=BMT123383222.1.2.3,Phases=3,Linecode=CABA06_3_3,Length=0.036800000,Units=km
new line.TR1384206 bus1=BMT123383222.1.2.3,bus2=BMT153185003.1.2.3,Phases=3,Linecode=CAB104_3_3,Length=0.043569000,Units=km
new line.TR1384213 bus1=BMT123383551.1.2.3,bus2=BMT123383558.1.2.3,Phases=3,Linecode=CAB902_4_3,Length=0.027002000,Units=km
new line.TR1384220 bus1=BMT153184648.1.2.3,bus2=BMT153184676.1.2.3,Phases=3,Linecode=CABA08_3_3,Length=0.027297000,Units=km
new line.TR1384227 bus1=BMT153184860.1.2.3,bus2=BMT153184250.1.2.3,Phases=3,Linecode=CABA08_3_3,Length=0.023856000,Units=km
new line.TR1384234 bus1=BMT153184678.1.2.3,bus2=BMT153184648.1.2.3,Phases=3,Linecode=CABA08_3_3,Length=0.031243000,Units=km
new line.TR1384241 bus1=BMT153184250.1.2.3,bus2=BMT153196103.1.2.3,Phases=3,Linecode=CABA08_3_3,Length=0.037739000,Units=km
new line.TR1384248 bus1=BMT153196103.1.2.3,bus2=BMT123383208.1.2.3,Phases=3,Linecode=CABA08_3_3,Length=0.029684000,Units=km
new line.TR1384255 bus1=BMT159261018.1.2.3,bus2=BMT2117337B.1.2.3,Phases=3,Linecode=CABA08_3_3,Length=0.029002000,Units=km
new line.TR1384262 bus1=BMT123383208.1.2.3,bus2=BMT2872434B.1.2.3,Phases=3,Linecode=CABA06_3_3,Length=0.039626000,Units=km
new line.TR1384269 bus1=BMT1797024B.1.2.3,bus2=BMT2117337B.1.2.3,Phases=3,Linecode=CABA08_3_3,Length=0.026872000,Units=km
new line.TR1384276 bus1=BMT1797031B.1.2.3,bus2=BMT1797024B.1.2.3,Phases=3,Linecode=CABA08_3_3,Length=0.038291000,Units=km
new line.TR1384283 bus1=BMT165281765.1.2.3,bus2=BMT1797038B.1.2.3,Phases=3,Linecode=CAB202_3_3,Length=0.015526000,Units=km
new line.TR1384290 bus1=BMT1797066B.1.2.3,bus2=BMT165281765.1.2.3,Phases=3,Linecode=CAB202_3_3,Length=0.034528000,Units=km
new line.TR1384297 bus1=BMT1797080B.1,bus2=BMT157376097.1,Phases=1,Linecode=CAB103_3_1,Length=0.018790000,Units=km
new line.TR1384304 bus1=BMT1797087B.1,bus2=BMT1797080B.1,Phases=1,Linecode=CAB103_3_1,Length=0.023089000,Units=km
new line.TR1384311 bus1=BMT1797094B.1.2.3,bus2=BMT1795841B.1.2.3,Phases=3,Linecode=CAB104_3_3,Length=0.042957000,Units=km
new line.TR1384318 bus1=BMT1797101B.1.2.3,bus2=BMT1797094B.1.2.3,Phases=3,Linecode=CAB104_3_3,Length=0.041234000,Units=km
new line.TR1384325 bus1=BMT1797108B.1,bus2=BMT1797087B.1,Phases=1,Linecode=CAB103_3_1,Length=0.036058000,Units=km
new line.TR1384332 bus1=BMT157376098.1.2.3,bus2=BMT1797101B.1.2.3,Phases=3,Linecode=CAB104_3_3,Length=0.040795000,Units=km
new line.TR1384339 bus1=BMT157376096.1,bus2=BMT1797108B.1,Phases=1,Linecode=CAB103_3_1,Length=0.017206000,Units=km
new line.TR1384346 bus1=BMT157376096.1.2.3,bus2=BMT157376098.1.2.3,Phases=3,Linecode=CAB104_3_3,Length=0.035696000,Units=km
new line.TR1384353 bus1=BMT157376095.1.2.3,bus2=BMT157376096.1.2.3,Phases=3,Linecode=CAB104_3_3,Length=0.036881000,Units=km
new line.TR1384360 bus1=BMT123384258.1.2.3,bus2=BMT123384202.1.2.3,Phases=3,Linecode=CAB104_3_3,Length=0.028074000,Units=km
new line.TR1384367 bus1=BMT123385056.1.2.3,bus2=BMT123385063.1.2.3,Phases=3,Linecode=CAB102_3_3,Length=0.014037000,Units=km
new line.TR1384374 bus1=BMT129911821.1.2.3,bus2=BMT129911814.1.2.3,Phases=3,Linecode=CAB104_3_3,Length=0.037805000,Units=km
new line.TR1384381 bus1=BMT129911814.1.2.3,bus2=BMT129911807.1.2.3,Phases=3,Linecode=CAB104_3_3,Length=0.029208000,Units=km
new line.TR1384388 bus1=BMT129911828.1.2.3,bus2=BMT123384209.1.2.3,Phases=3,Linecode=CAB103_3_3,Length=0.011403000,Units=km
new line.TR1384395 bus1=BMT129911807.1.2.3,bus2=BMT1797185B.1.2.3,Phases=3,Linecode=CAB104_3_3,Length=0.027805000,Units=km
new line.TR1384402 bus1=BMT1797185B.1.2.3,bus2=BMT1797206B.1.2.3,Phases=3,Linecode=CAB104_3_3,Length=0.070807000,Units=km
new line.TR1384409 bus1=BMT1797206B.1.2.3,bus2=BMT1797213B.1.2.3,Phases=3,Linecode=CAB104_3_3,Length=0.021956000,Units=km
new line.TR1384416 bus1=BMT1797213B.1.2.3,bus2=BMT129911800.1.2.3,Phases=3,Linecode=CAB104_3_3,Length=0.029157000,Units=km
new line.TR1384423 bus1=BMT1797220B.1.2.3,bus2=BMT161774412.1.2.3,Phases=3,Linecode=CAB104_3_3,Length=0.038590000,Units=km
new line.TR1384430 bus1=BMT1797220B.1.2.3,bus2=BMT157376199.1.2.3,Phases=3,Linecode=CAB104_3_3,Length=0.037111000,Units=km
new line.TR1384437 bus1=BMT161774412.1.2.3,bus2=BMT123384384.1.2.3,Phases=3,Linecode=CAB104_3_3,Length=0.018029000,Units=km
new line.TR1384444 bus1=BMT131385020.1.2.3,bus2=BMT1797241B.1.2.3,Phases=3,Linecode=CABA06_3_3,Length=0.040265000,Units=km
new line.TR1384451 bus1=BMT123384384.1.2.3,bus2=BMT1797248B.1.2.3,Phases=3,Linecode=CAB104_3_3,Length=0.030482000,Units=km
new line.TR1384465 bus1=BMT1797248B.1.2.3,bus2=BMT161774411.1.2.3,Phases=3,Linecode=CAB104_3_3,Length=0.022805000,Units=km
new line.TR1384472 bus1=BMT154929383.3,bus2=BMT1796464B.3,Phases=1,Linecode=CAB103_3_1,Length=0.017466000,Units=km
new line.TR1384479 bus1=BMT123384412.1.2.3,bus2=BMT131385034.1.2.3,Phases=3,Linecode=CABA06_3_3,Length=0.044601000,Units=km
new line.TR1384486 bus1=BMT161774411.1.2.3,bus2=BMT157376093.1.2.3,Phases=3,Linecode=CAB104_3_3,Length=0.047099000,Units=km
new line.TR1384493 bus1=BMT161774411.1.2.3,bus2=BMT123384258.1.2.3,Phases=3,Linecode=CAB104_3_3,Length=0.020810000,Units=km
new line.TR1384563 bus1=BMT1797367B.1.2.3,bus2=BMT158986891.1.2.3,Phases=3,Linecode=CAB102_3_3,Length=0.031259000,Units=km
new line.TR1384570 bus1=BMT1797374B.1.2.3,bus2=BMT1797367B.1.2.3,Phases=3,Linecode=CAB102_3_3,Length=0.034528000,Units=km
new line.TR1384577 bus1=BMT1797381B.1.2.3,bus2=BMT1797374B.1.2.3,Phases=3,Linecode=CAB102_3_3,Length=0.029734000,Units=km
new line.TR1384584 bus1=BMT161590741.1.2.3,bus2=BMT161590742.1.2.3,Phases=3,Linecode=CAB102_3_3,Length=0.030482000,Units=km
new line.TR1384731 bus1=BMT1797787B.1.2.3,bus2=BMT169824522.1.2.3,Phases=3,Linecode=CAB104_3_3,Length=0.017722000,Units=km
new line.TR1384738 bus1=BMT169824522.1.2.3,bus2=BMT1797801B.1.2.3,Phases=3,Linecode=CAB104_3_3,Length=0.027205000,Units=km
new line.TR1384745 bus1=BMT1797801B.1.2.3,bus2=BMT1797808B.1.2.3,Phases=3,Linecode=CAB104_3_3,Length=0.021842000,Units=km
new line.TR1384759 bus1=BMT1797829B.1,bus2=BMT1797850B.1,Phases=1,Linecode=CAB102_3_1,Length=0.028463000,Units=km
new line.TR1384766 bus1=BMT1797836B.1,bus2=BMT1797829B.1,Phases=1,Linecode=CAB102_3_1,Length=0.021379000,Units=km
new line.TR1384773 bus1=BMT1797843B.1,bus2=BMT1797836B.1,Phases=1,Linecode=CAB102_3_1,Length=0.022363000,Units=km
new line.TR1384780 bus1=BMT1797850B.1,bus2=BMT1798333B.1,Phases=1,Linecode=CAB102_3_1,Length=0.030613000,Units=km
new line.TR1384787 bus1=BMT1797857B.1,bus2=BMT1797843B.1,Phases=1,Linecode=CAB102_3_1,Length=0.030808000,Units=km
new line.TR1384794 bus1=BMT164040196.1.2.3,bus2=BMT1797871B.1.2.3,Phases=3,Linecode=CAB102_3_3,Length=0.035696000,Units=km
new line.TR1384801 bus1=BMT1797871B.1.2.3,bus2=BMT1797878B.1.2.3,Phases=3,Linecode=CAB102_3_3,Length=0.031578000,Units=km
new line.TR1384808 bus1=BMT1797878B.1.2.3,bus2=BMT1797885B.1.2.3,Phases=3,Linecode=CAB102_3_3,Length=0.038642000,Units=km
new line.TR1384815 bus1=BMT1797885B.1.2.3,bus2=BMT1797892B.1.2.3,Phases=3,Linecode=CAB102_3_3,Length=0.022025000,Units=km
new line.TR1384822 bus1=BMT1797892B.1.2.3,bus2=BMT164040195.1.2.3,Phases=3,Linecode=CAB102_3_3,Length=0.020027000,Units=km
new line.TR1384829 bus1=BMT1797899B.1,bus2=BMT130841925.1,Phases=1,Linecode=CAB103_3_1,Length=0.035358000,Units=km
new line.TR1384836 bus1=BMT1797906B.1,bus2=BMT1797913B.1,Phases=1,Linecode=CAB103_3_1,Length=0.030002000,Units=km
new line.TR1384843 bus1=BMT1797913B.1,bus2=BMT1797920B.1,Phases=1,Linecode=CAB103_3_1,Length=0.028074000,Units=km
new line.TR1384850 bus1=BMT1797920B.1,bus2=BMT1797899B.1,Phases=1,Linecode=CAB103_3_1,Length=0.036128000,Units=km
new line.TR1384857 bus1=BMT130841918.1,bus2=BMT1797906B.1,Phases=1,Linecode=CAB103_3_1,Length=0.031783000,Units=km
new line.TR1384864 bus1=BMT130841918.1.2.3,bus2=BMT1797941B.1.2.3,Phases=3,Linecode=CAB104_3_3,Length=0.033529000,Units=km
new line.TR1384871 bus1=BMT130841932.1.2.3,bus2=BMT130841918.1.2.3,Phases=3,Linecode=CAB104_3_3,Length=0.025944000,Units=km
new line.TR1384878 bus1=BMT1797941B.1.2.3,bus2=BMT123384062.1.2.3,Phases=3,Linecode=CAB104_3_3,Length=0.019315000,Units=km
new line.TR1384885 bus1=BMT1797948B.1.2.3,bus2=BMT1797962B.1.2.3,Phases=3,Linecode=CAB104_3_3,Length=0.037858000,Units=km
new line.TR1384892 bus1=BMT1797955B.1.2.3,bus2=BMT1797983B.1.2.3,Phases=3,Linecode=CAB104_3_3,Length=0.036403000,Units=km
new line.TR1384899 bus1=BMT1797962B.1.2.3,bus2=BMT1797976B.1.2.3,Phases=3,Linecode=CAB104_3_3,Length=0.030808000,Units=km
new line.TR1384906 bus1=BMT1797969B.1.2.3,bus2=BMT130841932.1.2.3,Phases=3,Linecode=CAB104_3_3,Length=0.021635000,Units=km
new line.TR1384913 bus1=BMT1797976B.1.2.3,bus2=BMT1797969B.1.2.3,Phases=3,Linecode=CAB104_3_3,Length=0.011182000,Units=km
new line.TR1384920 bus1=BMT1797983B.1.2.3,bus2=BMT1799481B.1.2.3,Phases=3,Linecode=CAB104_3_3,Length=0.031893000,Units=km
new line.TR1384927 bus1=BMT164040193.1.2.3,bus2=BMT1798011B.1.2.3,Phases=3,Linecode=CABA06_3_3,Length=0.033108000,Units=km
new line.TR1384934 bus1=BMT1798011B.1.2.3,bus2=BMT164040194.1.2.3,Phases=3,Linecode=CABA06_3_3,Length=0.036252000,Units=km
new line.TR1380118 bus1=BMT150344896.1.2.3,bus2=BMT150344897.1.2.3,Phases=3,Linecode=CAB609_5_3,Length=0.004001000,Units=km
new line.TR1380125 bus1=BMT1789891B.1.2.3,bus2=BMT1789884B.1.2.3,Phases=3,Linecode=CABA08_3_3,Length=0.032805000,Units=km
new line.TR1380384 bus1=BMT153530144.1.2.3,bus2=BMT153530145.1.2.3,Phases=3,Linecode=CABA08_3_3,Length=0.030069000,Units=km
new line.TR1380405 bus1=BMT153530142.1.2.3,bus2=BMT153530141.1.2.3,Phases=3,Linecode=CABA08_3_3,Length=0.036691000,Units=km
new line.TR1380580 bus1=BMT1790710B.1.2.3,bus2=BMT156402257.1.2.3,Phases=3,Linecode=CAB103_3_3,Length=0.033737000,Units=km
new line.TR1380587 bus1=BMT156402256.1.2.3,bus2=BMT1790710B.1.2.3,Phases=3,Linecode=CAB103_3_3,Length=0.038836000,Units=km
new line.TR1380594 bus1=BMT1790724B.1.2.3,bus2=BMT148158762.1.2.3,Phases=3,Linecode=CAB103_3_3,Length=0.032987000,Units=km
new line.TR1380636 bus1=BMT1790822B.1.2.3,bus2=BMT1790836B.1.2.3,Phases=3,Linecode=CAB104_3_3,Length=0.019028000,Units=km
new line.TR1380643 bus1=BMT1790836B.1.2.3,bus2=BMT1790850B.1.2.3,Phases=3,Linecode=CAB104_3_3,Length=0.009850000,Units=km
new line.TR1380650 bus1=BMT1790850B.1.2.3,bus2=BMT167980241.1.2.3,Phases=3,Linecode=CAB104_3_3,Length=0.017806000,Units=km
new line.TR1380657 bus1=BMT1790857B.1.2.3,bus2=BMT167980243.1.2.3,Phases=3,Linecode=CAB102_3_3,Length=0.032652000,Units=km
new line.TR1380664 bus1=BMT167980241.1.2.3,bus2=BMT1790857B.1.2.3,Phases=3,Linecode=CAB102_3_3,Length=0.008063000,Units=km
new line.TR1380671 bus1=BMT167980241.1.2.3,bus2=BMT123384482.1.2.3,Phases=3,Linecode=CAB104_3_3,Length=0.039411000,Units=km
new line.TR1380678 bus1=BMT123384482.1.2.3,bus2=BMT167980240.1.2.3,Phases=3,Linecode=CAB104_3_3,Length=0.031243000,Units=km
new line.TR1380685 bus1=BMT147609788.1.2.3,bus2=BMT1793657B.1.2.3,Phases=3,Linecode=CAB102_3_3,Length=0.023347000,Units=km
new line.TR1380825 bus1=BMT1791123B.1.2.3,bus2=BMT173132576.1.2.3,Phases=3,Linecode=CAB102_3_3,Length=0.017693000,Units=km
new line.TR1380832 bus1=BMT173132575.1.2.3,bus2=BMT1791123B.1.2.3,Phases=3,Linecode=CAB102_3_3,Length=0.023261000,Units=km
new line.TR1380839 bus1=BMT173132575.1.2.3,bus2=BMT1791137B.1.2.3,Phases=3,Linecode=CAB103_3_3,Length=0.017031000,Units=km
new line.TR1380846 bus1=BMT1791137B.1.2.3,bus2=BMT173132577.1.2.3,Phases=3,Linecode=CAB103_3_3,Length=0.031323000,Units=km
new line.TR1380853 bus1=BMT1791144B.1.2.3,bus2=BMT173132575.1.2.3,Phases=3,Linecode=CAB103_3_3,Length=0.032560000,Units=km
new line.TR1380860 bus1=BMT173132574.1.2.3,bus2=BMT1791144B.1.2.3,Phases=3,Linecode=CAB103_3_3,Length=0.030416000,Units=km
new line.TR1380867 bus1=BMT173132577.1.2.3,bus2=BMT3149837B.1.2.3,Phases=3,Linecode=CAB103_3_3,Length=0.007072000,Units=km
new line.TR1380874 bus1=BMT1791172B.1.2.3,bus2=BMT173132574.1.2.3,Phases=3,Linecode=CAB103_3_3,Length=0.038213000,Units=km
new line.TR1380881 bus1=BMT173132573.1.2.3,bus2=BMT1791172B.1.2.3,Phases=3,Linecode=CAB103_3_3,Length=0.034658000,Units=km
new line.TR1380888 bus1=BMT1791193B.1.2.3,bus2=BMT173132573.1.2.3,Phases=3,Linecode=CAB102_3_3,Length=0.022025000,Units=km
new line.TR1380895 bus1=BMT1791200B.1.2.3,bus2=BMT1791193B.1.2.3,Phases=3,Linecode=CAB102_3_3,Length=0.021215000,Units=km
new line.TR1380902 bus1=BMT1791207B.1.2.3,bus2=BMT1791200B.1.2.3,Phases=3,Linecode=CAB102_3_3,Length=0.025320000,Units=km
new line.TR1380916 bus1=BMT1791214B.1.2.3,bus2=BMT1791207B.1.2.3,Phases=3,Linecode=CAB102_3_3,Length=0.056925000,Units=km
new line.TR1380979 bus1=BMT1791424B.1.2.3,bus2=BMT123383453.1.2.3,Phases=3,Linecode=CABA06_3_3,Length=0.022093000,Units=km
new line.TR1381168 bus1=BMT123384783.1.2.3,bus2=BMT167980195.1.2.3,Phases=3,Linecode=CABA08_3_3,Length=0.027787000,Units=km
new line.TR1381175 bus1=BMT123384818.1.2.3,bus2=BMT123384825.1.2.3,Phases=3,Linecode=CABA06_3_3,Length=0.016554000,Units=km
new line.TR1381189 bus1=BMT167980193.1.2.3,bus2=BMT123384783.1.2.3,Phases=3,Linecode=CABA08_3_3,Length=0.029157000,Units=km
new line.TR1381196 bus1=BMT167980193.1.2.3,bus2=BMT167980192.1.2.3,Phases=3,Linecode=CABA08_3_3,Length=0.030531000,Units=km
new line.TR1381217 bus1=BMT153162098.1.2.3,bus2=BMT123383089.1.2.3,Phases=3,Linecode=CABA08_3_3,Length=0.034368000,Units=km
new line.TR1381224 bus1=BMT153162098.1.2.3,bus2=BMT123383075.1.2.3,Phases=3,Linecode=CABA08_3_3,Length=0.020617000,Units=km
...
