2024_89_CemigReconfigurationCases/1_AlimsCemig/MRND218/MRND218Transformadores.dss
new transformer.1429313 Phases=3,Windings=2,Buses=[BMT157060577.1.2.3 BBT157060504.1.2.3.0],Conns=[delta wye],kvs=[13.8 0.22],kvas=[150.000000000 150.000000000],Taps=[1,1.000000000],XHL=3.805000000,%loadloss=1.127000000,%noloadloss=0.280000000
new transformer.398466 Phases=3,Windings=2,Buses=[BMT123383999.1.2.3 BBT1877979.1.2.3.0],Conns=[delta wye],kvs=[13.8 0.22],kvas=[75.000000000 75.000000000],Taps=[1,1.000000000],XHL=3.721000000,%loadloss=1.340000000,%noloadloss=0.340000000
new transformer.398473 Phases=3,Windings=2,Buses=[BMT123383278.1.2.3 BBT1878007.1.2.3.0],Conns=[delta wye],kvs=[13.8 0.22],kvas=[75.000000000 75.000000000],Taps=[1,1.000000000],XHL=3.721000000,%loadloss=1.340000000,%noloadloss=0.340000000
new transformer.398480 Phases=3,Windings=2,Buses=[BMT123383327.1.2.3 BBT1878070.1.2.3.0],Conns=[delta wye],kvs=[13.8 0.22],kvas=[100.000000000 100.000000000],Taps=[1,1.000000000],XHL=3.771000000,%loadloss=1.218000000,%noloadloss=0.335000000
new transformer.398487 Phases=3,Windings=2,Buses=[BMT164036445.1.2.3 BBT1878133.1.2.3.0],Conns=[delta wye],kvs=[13.8 0.22],kvas=[75.000000000 75.000000000],Taps=[1,1.000000000],XHL=3.721000000,%loadloss=1.340000000,%noloadloss=0.340000000
new transformer.398501 Phases=3,Windings=2,Buses=[BMT164036446.1.2.3 BBT1878308.1.2.3.0],Conns=[delta wye],kvs=[13.8 0.22],kvas=[75.000000000 75.000000000],Taps=[1,1.000000000],XHL=3.721000000,%loadloss=1.340000000,%noloadloss=0.340000000
new transformer.398508 Phases=3,Windings=2,Buses=[BMT157376201.1.2.3 BBT1878350.1.2.3.0],Conns=[delta wye],kvs=[13.8 0.22],kvas=[150.000000000 150.000000000],Taps=[1,1.000000000],XHL=3.805000000,%loadloss=1.127000000,%noloadloss=0.280000000
new transformer.398529 Phases=3,Windings=2,Buses=[BMT123383299.1.2.3 BBT1878469.1.2.3.0],Conns=[delta wye],kvs=[13.8 0.22],kvas=[100.000000000 100.000000000],Taps=[1,1.000000000],XHL=3.771000000,%loadloss=1.218000000,%noloadloss=0.335000000
new transformer.398543 Phases=3,Windings=2,Buses=[BMT164036447.1.2.3 BBT1878609.1.2.3.0],Conns=[delta wye],kvs=[13.8 0.22],kvas=[75.000000000 75.000000000],Taps=[1,1.000000000],XHL=3.721000000,%loadloss=1.340000000,%noloadloss=0.340000000
new transformer.398564 Phases=3,Windings=2,Buses=[BMT161590746.1.2.3 BBT1878861.1.2.3.0],Conns=[delta wye],kvs=[13.8 0.22],kvas=[45.000000000 45.000000000],Taps=[1,1.000000000],XHL=3.636000000,%loadloss=1.522000000,%noloadloss=0.377777000
new transformer.398571 Phases=1,Windings=3,Buses=[BMT164071584.1 BBT1878945.1.0 BBT1878945.0.2],Conns=[wye wye wye],kvs=[7.967 0.12 0.12],kvas=[25.000000000 25.000000000 25.000000000],Taps=[1,1.000000000,1.000000000],XHL=2.344000000,XHT=2.344000000,XLT=1.563000000,%loadloss=1.420000000,%noloadloss=0.320000000
new transformer.398585 Phases=1,Windings=3,Buses=[BMT164071585.1 BBT1879050.1.0 BBT1879050.0.2],Conns=[wye wye wye],kvs=[7.967 0.12 0.12],kvas=[35.000000000 35.000000000 35.000000000],Taps=[1,1.000000000,1.000000000],XHL=2.475000000,XHT=2.475000000,XLT=1.650000000,%loadloss=1.293000000,%noloadloss=0.342857000
new transformer.398620 Phases=3,Windings=2,Buses=[BMT157376100.1.2.3 BBT1879421.1.2.3.0],Conns=[delta wye],kvs=[13.8 0.22],kvas=[45.000000000 45.000000000],Taps=[1,1.000000000],XHL=3.636000000,%loadloss=1.522000000,%noloadloss=0.377777000
new transformer.398627 Phases=3,Windings=2,Buses=[BMT123383971.1.2.3 BBT1879498.1.2.3.0],Conns=[delta wye],kvs=[13.8 0.22],kvas=[150.000000000 150.000000000],Taps=[1,1.000000000],XHL=3.805000000,%loadloss=1.127000000,%noloadloss=0.280000000
new transformer.398648 Phases=3,Windings=2,Buses=[BMT157376101.1.2.3 BBT1879743.1.2.3.0],Conns=[delta wye],kvs=[13.8 0.22],kvas=[45.000000000 45.000000000],Taps=[1,1.000000000],XHL=3.636000000,%loadloss=1.522000000,%noloadloss=0.377777000
new transformer.398655 Phases=3,Windings=2,Buses=[BMT161590745.1.2.3 BBT1879806.1.2.3.0],Conns=[delta wye],kvs=[13.8 0.22],kvas=[45.000000000 45.000000000],Taps=[1,1.000000000],XHL=3.636000000,%loadloss=1.522000000,%noloadloss=0.377777000
new transformer.398669 Phases=3,Windings=2,Buses=[BMT161590740.1.2.3 BBT1879890.1.2.3.0],Conns=[delta wye],kvs=[13.8 0.22],kvas=[75.000000000 75.000000000],Taps=[1,1.000000000],XHL=3.721000000,%loadloss=1.340000000,%noloadloss=0.340000000
new transformer.398676 Phases=3,Windings=2,Buses=[BMT154935193.1.2.3 BBT1880023.1.2.3.0],Conns=[delta wye],kvs=[13.8 0.22],kvas=[75.000000000 75.000000000],Taps=[1,1.000000000],XHL=3.721000000,%loadloss=1.340000000,%noloadloss=0.340000000
new transformer.398683 Phases=1,Windings=3,Buses=[BMT154929384.3 BBT1880086.1.0 BBT1880086.0.2],Conns=[wye wye wye],kvs=[7.967 0.12 0.12],kvas=[35.000000000 35.000000000 35.000000000],Taps=[1,1.000000000,1.000000000],XHL=2.475000000,XHT=2.475000000,XLT=1.650000000,%loadloss=1.293000000,%noloadloss=0.342857000
new transformer.398690 Phases=3,Windings=2,Buses=[BMT123383964.1.2.3 BBT1880184.1.2.3.0],Conns=[delta wye],kvs=[13.8 0.22],kvas=[75.000000000 75.000000000],Taps=[1,1.000000000],XHL=3.721000000,%loadloss=1.340000000,%noloadloss=0.340000000
new transformer.398697 Phases=3,Windings=2,Buses=[BMT164040197.1.2.3 BBT1880219.1.2.3.0],Conns=[delta wye],kvs=[13.8 0.22],kvas=[150.000000000 150.000000000],Taps=[1,1.000000000],XHL=3.805000000,%loadloss=1.127000000,%noloadloss=0.280000000
new transformer.398711 Phases=3,Windings=2,Buses=[BMT154935194.1.2.3 BBT1880303.1.2.3.0],Conns=[delta wye],kvs=[13.8 0.22],kvas=[75.000000000 75.000000000],Taps=[1,1.000000000],XHL=3.721000000,%loadloss=1.340000000,%noloadloss=0.340000000
new transformer.398725 Phases=3,Windings=2,Buses=[BMT154935196.1.2.3 BBT1880401.1.2.3.0],Conns=[delta wye],kvs=[13.8 0.22],kvas=[75.000000000 75.000000000],Taps=[1,1.000000000],XHL=3.721000000,%loadloss=1.340000000,%noloadloss=0.340000000
new transformer.398732 Phases=3,Windings=2,Buses=[BMT157060573.1.2.3 BBT1880450.1.2.3.0],Conns=[delta wye],kvs=[13.8 0.22],kvas=[100.000000000 100.000000000],Taps=[1,1.000000000],XHL=3.771000000,%loadloss=1.218000000,%noloadloss=0.335000000
new transformer.398746 Phases=3,Windings=2,Buses=[BMT161590738.1.2.3 BBT1880618.1.2.3.0],Conns=[delta wye],kvs=[13.8 0.22],kvas=[75.000000000 75.000000000],Taps=[1,1.000000000],XHL=3.721000000,%loadloss=1.340000000,%noloadloss=0.340000000
new transformer.398753 Phases=3,Windings=2,Buses=[BMT153196103.1.2.3 BBT1880723.1.2.3.0],Conns=[delta wye],kvs=[13.8 0.22],kvas=[75.000000000 75.000000000],Taps=[1,1.000000000],XHL=3.721000000,%loadloss=1.340000000,%noloadloss=0.340000000
new transformer.398760 Phases=3,Windings=2,Buses=[BMT165281765.1.2.3 BBT1880870.1.2.3.0],Conns=[delta wye],kvs=[13.8 0.22],kvas=[100.000000000 100.000000000],Taps=[1,1.000000000],XHL=3.771000000,%loadloss=1.218000000,%noloadloss=0.335000000
new transformer.398767 Phases=3,Windings=2,Buses=[BMT157376098.1.2.3 BBT1880905.1.2.3.0],Conns=[delta wye],kvs=[13.8 0.22],kvas=[100.000000000 100.000000000],Taps=[1,1.000000000],XHL=3.771000000,%loadloss=1.218000000,%noloadloss=0.335000000
new transformer.398774 Phases=3,Windings=2,Buses=[BMT161774412.1.2.3 BBT1881024.1.2.3.0],Conns=[delta wye],kvs=[13.8 0.22],kvas=[75.000000000 75.000000000],Taps=[1,1.000000000],XHL=3.721000000,%loadloss=1.340000000,%noloadloss=0.340000000
new transformer.398788 Phases=3,Windings=2,Buses=[BMT158986891.1.2.3 BBT1881178.1.2.3.0],Conns=[delta wye],kvs=[13.8 0.22],kvas=[45.000000000 45.000000000],Taps=[1,1.000000000],XHL=3.636000000,%loadloss=1.522000000,%noloadloss=0.377777000
new transformer.398795 Phases=3,Windings=2,Buses=[BMT161590742.1.2.3 BBT1881241.1.2.3.0],Conns=[delta wye],kvs=[13.8 0.22],kvas=[75.000000000 75.000000000],Taps=[1,1.000000000],XHL=3.721000000,%loadloss=1.340000000,%noloadloss=0.340000000
new transformer.398830 Phases=3,Windings=2,Buses=[BMT157060579.1.2.3 BBT1881563.1.2.3.0],Conns=[delta wye],kvs=[13.8 0.22],kvas=[75.000000000 75.000000000],Taps=[1,1.000000000],XHL=3.721000000,%loadloss=1.340000000,%noloadloss=0.340000000
new transformer.398837 Phases=3,Windings=2,Buses=[BMT169824522.1.2.3 BBT1881696.1.2.3.0],Conns=[delta wye],kvs=[13.8 0.22],kvas=[150.000000000 150.000000000],Taps=[1,1.000000000],XHL=3.805000000,%loadloss=1.127000000,%noloadloss=0.280000000
new transformer.398844 Phases=3,Windings=2,Buses=[BMT164040196.1.2.3 BBT1881745.1.2.3.0],Conns=[delta wye],kvs=[13.8 0.22],kvas=[75.000000000 75.000000000],Taps=[1,1.000000000],XHL=3.721000000,%loadloss=1.340000000,%noloadloss=0.340000000
new transformer.398851 Phases=1,Windings=3,Buses=[BMT130841932.3 BBT1881836.1.0 BBT1881836.0.2],Conns=[wye wye wye],kvs=[7.967 0.12 0.12],kvas=[35.000000000 35.000000000 35.000000000],Taps=[1,1.000000000,1.000000000],XHL=2.475000000,XHT=2.475000000,XLT=1.650000000,%loadloss=1.293000000,%noloadloss=0.342857000
new transformer.398858 Phases=3,Windings=2,Buses=[BMT164040194.1.2.3 BBT1881934.1.2.3.0],Conns=[delta wye],kvs=[13.8 0.22],kvas=[45.000000000 45.000000000],Taps=[1,1.000000000],XHL=3.636000000,%loadloss=1.522000000,%noloadloss=0.377777000
new transformer.398865 Phases=3,Windings=2,Buses=[BMT165281764.1.2.3 BBT1882004.1.2.3.0],Conns=[delta wye],kvs=[13.8 0.22],kvas=[45.000000000 45.000000000],Taps=[1,1.000000000],XHL=3.636000000,%loadloss=1.522000000,%noloadloss=0.377777000
new transformer.398872 Phases=3,Windings=2,Buses=[BMT156501941.1.2.3 BBT1882060.1.2.3.0],Conns=[delta wye],kvs=[13.8 0.22],kvas=[45.000000000 45.000000000],Taps=[1,1.000000000],XHL=3.636000000,%loadloss=1.522000000,%noloadloss=0.377777000
new transformer.398879 Phases=3,Windings=2,Buses=[BMT156501942.1.2.3 BBT1882137.1.2.3.0],Conns=[delta wye],kvs=[13.8 0.22],kvas=[45.000000000 45.000000000],Taps=[1,1.000000000],XHL=3.636000000,%loadloss=1.522000000,%noloadloss=0.377777000
new transformer.398893 Phases=3,Windings=2,Buses=[BMT169824520.1.2.3 BBT1882256.1.2.3.0],Conns=[delta wye],kvs=[13.8 0.22],kvas=[45.000000000 45.000000000],Taps=[1,1.000000000],XHL=3.636000000,%loadloss=1.522000000,%noloadloss=0.377777000
new transformer.398900 Phases=1,Windings=3,Buses=[BMT133455298.1 BBT1882347.1.0 BBT1882347.0.2],Conns=[wye wye wye],kvs=[7.967 0.12 0.12],kvas=[35.000000000 35.000000000 35.000000000],Taps=[1,1.000000000,1.000000000],XHL=2.475000000,XHT=2.475000000,XLT=1.650000000,%loadloss=1.293000000,%noloadloss=0.342857000
new transformer.398942 Phases=3,Windings=2,Buses=[BMT156501944.1.2.3 BBT1882809.1.2.3.0],Conns=[delta wye],kvs=[13.8 0.22],kvas=[75.000000000 75.000000000],Taps=[1,1.000000000],XHL=3.721000000,%loadloss=1.340000000,%noloadloss=0.340000000
new transformer.398956 Phases=3,Windings=2,Buses=[BMT129911786.1.2.3 BBT1882949.1.2.3.0],Conns=[delta wye],kvs=[13.8 0.22],kvas=[75.000000000 75.000000000],Taps=[1,1.000000000],XHL=3.721000000,%loadloss=1.340000000,%noloadloss=0.340000000
new transformer.398984 Phases=3,Windings=2,Buses=[BMT130285348.1.2.3 BBT1883208.1.2.3.0],Conns=[delta wye],kvs=[13.8 0.22],kvas=[45.000000000 45.000000000],Taps=[1,1.000000000],XHL=3.636000000,%loadloss=1.522000000,%noloadloss=0.377777000
new transformer.398991 Phases=3,Windings=2,Buses=[BMT156501948.1.2.3 BBT1883299.1.2.3.0],Conns=[delta wye],kvs=[13.8 0.22],kvas=[45.000000000 45.000000000],Taps=[1,1.000000000],XHL=3.636000000,%loadloss=1.522000000,%noloadloss=0.377777000
new transformer.398998 Phases=3,Windings=2,Buses=[BMT165281763.1.2.3 BBT1883383.1.2.3.0],Conns=[delta wye],kvs=[13.8 0.22],kvas=[45.000000000 45.000000000],Taps=[1,1.000000000],XHL=3.636000000,%loadloss=1.522000000,%noloadloss=0.377777000
new transformer.399005 Phases=3,Windings=2,Buses=[BMT172206693.1.2.3 BBT1883495.1.2.3.0],Conns=[delta wye],kvs=[13.8 0.22],kvas=[45.000000000 45.000000000],Taps=[1,1.000000000],XHL=3.636000000,%loadloss=1.522000000,%noloadloss=0.377777000
new transformer.399012 Phases=1,Windings=3,Buses=[BMT139536891.3 BBT1883530.1.0 BBT1883530.0.2],Conns=[wye wye wye],kvs=[7.967 0.12 0.12],kvas=[35.000000000 35.000000000 35.000000000],Taps=[1,1.000000000,1.000000000],XHL=2.475000000,XHT=2.475000000,XLT=1.650000000,%loadloss=1.293000000,%noloadloss=0.342857000
new transformer.399019 Phases=3,Windings=2,Buses=[BMT130841897.1.2.3 BBT1883614.1.2.3.0],Conns=[delta wye],kvs=[13.8 0.22],kvas=[75.000000000 75.000000000],Taps=[1,1.000000000],XHL=3.721000000,%loadloss=1.340000000,%noloadloss=0.340000000
new transformer.399026 Phases=3,Windings=2,Buses=[BMT130285411.1.2.3 BBT1883712.1.2.3.0],Conns=[delta wye],kvs=[13.8 0.22],kvas=[45.000000000 45.000000000],Taps=[1,1.000000000],XHL=3.636000000,%loadloss=1.522000000,%noloadloss=0.377777000
new transformer.399040 Phases=3,Windings=2,Buses=[BMT172206689.1.2.3 BBT1883859.1.2.3.0],Conns=[delta wye],kvs=[13.8 0.22],kvas=[75.000000000 75.000000000],Taps=[1,1.000000000],XHL=3.721000000,%loadloss=1.340000000,%noloadloss=0.340000000
new transformer.399047 Phases=3,Windings=2,Buses=[BMT152289056.1.2.3 BBT1883943.1.2.3.0],Conns=[delta wye],kvs=[13.8 0.22],kvas=[75.000000000 75.000000000],Taps=[1,1.000000000],XHL=3.721000000,%loadloss=1.340000000,%noloadloss=0.340000000
new transformer.399075 Phases=3,Windings=2,Buses=[BMT130285397.1.2.3 BBT1884216.1.2.3.0],Conns=[delta wye],kvs=[13.8 0.22],kvas=[45.000000000 45.000000000],Taps=[1,1.000000000],XHL=3.636000000,%loadloss=1.522000000,%noloadloss=0.377777000
new transformer.399089 Phases=3,Windings=2,Buses=[BMT168328070.1.2.3 BBT1884468.1.2.3.0],Conns=[delta wye],kvs=[13.8 0.22],kvas=[75.000000000 75.000000000],Taps=[1,1.000000000],XHL=3.721000000,%loadloss=1.340000000,%noloadloss=0.340000000
new transformer.399117 Phases=3,Windings=2,Buses=[BMT156501952.1.2.3 BBT1884860.1.2.3.0],Conns=[delta wye],kvs=[13.8 0.22],kvas=[30.000000000 30.000000000],Taps=[1,1.000000000],XHL=3.564000000,%loadloss=1.667000000,%noloadloss=0.433333000
new transformer.451253 Phases=3,Windings=2,Buses=[BMT173134735.1.2.3 BBT2227251.1.2.3.0],Conns=[delta wye],kvs=[13.8 0.22],kvas=[75.000000000 75.000000000],Taps=[1,1.000000000],XHL=3.721000000,%loadloss=1.340000000,%noloadloss=0.340000000
new transformer.1062326 Phases=3,Windings=2,Buses=[BMT167547617.1.2.3 BBT129872124.1.2.3.0],Conns=[delta wye],kvs=[13.8 0.22],kvas=[45.000000000 45.000000000],Taps=[1,1.000000000],XHL=3.636000000,%loadloss=1.522000000,%noloadloss=0.377777000
new transformer.1469666 Phases=3,Windings=2,Buses=[BMT169824521.1.2.3 BBT166354550.1.2.3.0],Conns=[delta wye],kvs=[13.8 0.22],kvas=[250.000000000 250.000000000],Taps=[1,1.000000000],XHL=4.881000000,%loadloss=0.990000000,%noloadloss=0.280000000
new transformer.533090 Phases=3,Windings=2,Buses=[BMT153162100.1.2.3 BBT3452188.1.2.3.0],Conns=[delta wye],kvs=[13.8 0.22],kvas=[75.000000000 75.000000000],Taps=[1,1.000000000],XHL=3.721000000,%loadloss=1.340000000,%noloadloss=0.340000000
new transformer.533097 Phases=3,Windings=2,Buses=[BMT153162268.1.2.3 BBT3452909.1.2.3.0],Conns=[delta wye],kvs=[13.8 0.22],kvas=[150.000000000 150.000000000],Taps=[1,1.000000000],XHL=3.805000000,%loadloss=1.127000000,%noloadloss=0.280000000
new transformer.533132 Phases=1,Windings=3,Buses=[BMT157376097.1 BBT3454232.1.0 BBT3454232.0.2],Conns=[wye wye wye],kvs=[7.967 0.12 0.12],kvas=[35.000000000 35.000000000 35.000000000],Taps=[1,1.000000000,1.000000000],XHL=2.475000000,XHT=2.475000000,XLT=1.650000000,%loadloss=1.293000000,%noloadloss=0.342857000
new transformer.533153 Phases=3,Windings=2,Buses=[BMT131385034.1.2.3 BBT3454638.1.2.3.0],Conns=[delta wye],kvs=[13.8 0.22],kvas=[100.000000000 100.000000000],Taps=[1,1.000000000],XHL=3.771000000,%loadloss=1.218000000,%noloadloss=0.335000000
new transformer.533174 Phases=3,Windings=2,Buses=[BMT123383516.1.2.3 BBT3455282.1.2.3.0],Conns=[delta wye],kvs=[13.8 0.22],kvas=[75.000000000 75.000000000],Taps=[1,1.000000000],XHL=3.721000000,%loadloss=1.340000000,%noloadloss=0.340000000
new transformer.539327 Phases=3,Windings=2,Buses=[BMT167547607.1.2.3 BBT3654152.1.2.3.0],Conns=[delta wye],kvs=[13.8 0.22],kvas=[30.000000000 30.000000000],Taps=[1,1.000000000],XHL=3.564000000,%loadloss=1.667000000,%noloadloss=0.433333000
new transformer.552501 Phases=3,Windings=2,Buses=[BMT164036449.1.2.3 BBT3931590.1.2.3.0],Conns=[delta wye],kvs=[13.8 0.22],kvas=[150.000000000 150.000000000],Taps=[1,1.000000000],XHL=3.805000000,%loadloss=1.127000000,%noloadloss=0.280000000
new transformer.564219 Phases=3,Windings=2,Buses=[BMT173132578.1.2.3 BBT5033089.1.2.3.0],Conns=[delta wye],kvs=[13.8 0.22],kvas=[75.000000000 75.000000000],Taps=[1,1.000000000],XHL=3.721000000,%loadloss=1.340000000,%noloadloss=0.340000000
new transformer.1028943 Phases=3,Windings=2,Buses=[BMT129911807.1.2.3 BBT96653904.1.2.3.0],Conns=[delta wye],kvs=[13.8 0.22],kvas=[45.000000000 45.000000000],Taps=[1,1.000000000],XHL=3.636000000,%loadloss=1.522000000,%noloadloss=0.377777000
new transformer.1076641 Phases=3,Windings=2,Buses=[BMT158986893.1.2.3 BBT135021247.1.2.3.0],Conns=[delta wye],kvs=[13.8 0.22],kvas=[45.000000000 45.000000000],Taps=[1,1.000000000],XHL=3.636000000,%loadloss=1.522000000,%noloadloss=0.377777000
new transformer.1108358 Phases=3,Windings=2,Buses=[BMT154538594.1.2.3 BBT143866594.1.2.3.0],Conns=[delta wye],kvs=[13.8 0.22],kvas=[45.000000000 45.000000000],Taps=[1,1.000000000],XHL=3.636000000,%loadloss=1.522000000,%noloadloss=0.377777000
new transformer.1124311 Phases=3,Windings=2,Buses=[BMT161590744.1.2.3 BBT147903725.1.2.3.0],Conns=[delta wye],kvs=[13.8 0.22],kvas=[75.000000000 75.000000000],Taps=[1,1.000000000],XHL=3.721000000,%loadloss=1.340000000,%noloadloss=0.340000000
new transformer.1465961 Phases=3,Windings=2,Buses=[BMT168966252.1.2.3 BBT165584958.1.2.3.0],Conns=[delta wye],kvs=[13.8 0.22],kvas=[45.000000000 45.000000000],Taps=[1,1.000000000],XHL=3.636000000,%loadloss=1.522000000,%noloadloss=0.377777000
new transformer.408175 Phases=3,Windings=2,Buses=[BMT123385455.1.2.3 BBT1931102.1.2.3.0],Conns=[delta wye],kvs=[13.8 0.22],kvas=[45.000000000 45.000000000],Taps=[1,1.000000000],XHL=3.636000000,%loadloss=1.522000000,%noloadloss=0.377777000
new transformer.515653 Phases=1,Windings=3,Buses=[BMT148678337.1 BBT3096371.1.0 BBT3096371.0.2],Conns=[wye wye wye],kvs=[7.967 0.12 0.12],kvas=[15.000000000 15.000000000 15.000000000],Taps=[1,1.000000000,1.000000000],XHL=2.123000000,XHT=2.123000000,XLT=1.415000000,%loadloss=1.600000000,%noloadloss=0.400000000
new transformer.537416 Phases=1,Windings=3,Buses=[BMT158986892.1 BBT3619467.1.0 BBT3619467.0.2],Conns=[wye wye wye],kvs=[7.967 0.12 0.12],kvas=[15.000000000 15.000000000 15.000000000],Taps=[1,1.000000000,1.000000000],XHL=2.123000000,XHT=2.123000000,XLT=1.415000000,%loadloss=1.600000000,%noloadloss=0.400000000
new transformer.570379 Phases=3,Windings=2,Buses=[BMT172908900.1.2.3 BBT6092189.1.2.3.0],Conns=[delta wye],kvs=[13.8 0.22],kvas=[75.000000000 75.000000000],Taps=[1,1.000000000],XHL=3.721000000,%loadloss=1.340000000,%noloadloss=0.340000000
new transformer.1403901 Phases=3,Windings=2,Buses=[BMT168328074.1.2.3 BBT151387823.1.2.3.0],Conns=[delta wye],kvs=[13.8 0.22],kvas=[150.000000000 150.000000000],Taps=[1,1.000000000],XHL=3.805000000,%loadloss=1.127000000,%noloadloss=0.280000000
new transformer.1445228 Phases=3,Windings=2,Buses=[BMT167547609.1.2.3 BBT160361011.1.2.3.0],Conns=[delta wye],kvs=[13.8 0.22],kvas=[45.000000000 45.000000000],Taps=[1,1.000000000],XHL=3.636000000,%loadloss=1.522000000,%noloadloss=0.377777000
new transformer.397654 Phases=3,Windings=2,Buses=[BMT154906827.1.2.3 BBT1868879.1.2.3.0],Conns=[delta wye],kvs=[13.8 0.22],kvas=[75.000000000 75.000000000],Taps=[1,1.000000000],XHL=3.721000000,%loadloss=1.340000000,%noloadloss=0.340000000
new transformer.397710 Phases=3,Windings=2,Buses=[BMT164042346.1.2.3 BBT1869369.1.2.3.0],Conns=[delta wye],kvs=[13.8 0.22],kvas=[75.000000000 75.000000000],Taps=[1,1.000000000],XHL=3.721000000,%loadloss=1.340000000,%noloadloss=0.340000000
new transformer.407895 Phases=3,Windings=2,Buses=[BMT156501949.1.2.3 BBT1929688.1.2.3.0],Conns=[delta wye],kvs=[13.8 0.22],kvas=[75.000000000 75.000000000],Taps=[1,1.000000000],XHL=3.721000000,%loadloss=1.340000000,%noloadloss=0.340000000
new transformer.423596 Phases=1,Windings=3,Buses=[BMT173134733.2 BBT2028444.1.0 BBT2028444.0.2],Conns=[wye wye wye],kvs=[7.967 0.12 0.12],kvas=[25.000000000 25.000000000 25.000000000],Taps=[1,1.000000000,1.000000000],XHL=2.344000000,XHT=2.344000000,XLT=1.563000000,%loadloss=1.420000000,%noloadloss=0.320000000
new transformer.487289 Phases=3,Windings=2,Buses=[BMT153196104.1.2.3 BBT2828411.1.2.3.0],Conns=[delta wye],kvs=[13.8 0.22],kvas=[45.000000000 45.000000000],Taps=[1,1.000000000],XHL=3.636000000,%loadloss=1.522000000,%noloadloss=0.377777000
new transformer.510907 Phases=3,Windings=2,Buses=[BMT123385504.1.2.3 BBT3046503.1.2.3.0],Conns=[delta wye],kvs=[13.8 0.22],kvas=[45.000000000 45.000000000],Taps=[1,1.000000000],XHL=3.636000000,%loadloss=1.522000000,%noloadloss=0.377777000
new transformer.535897 Phases=3,Windings=2,Buses=[BMT173134734.1.2.3 BBT3587204.1.2.3.0],Conns=[delta wye],kvs=[13.8 0.22],kvas=[45.000000000 45.000000000],Taps=[1,1.000000000],XHL=3.636000000,%loadloss=1.522000000,%noloadloss=0.377777000
new transformer.544332 Phases=3,Windings=2,Buses=[BMT123383264.1.2.3 BBT3732657.1.2.3.0],Conns=[delta wye],kvs=[13.8 0.22],kvas=[45.000000000 45.000000000],Taps=[1,1.000000000],XHL=3.636000000,%loadloss=1.522000000,%noloadloss=0.377777000
new transformer.1064181 Phases=3,Windings=2,Buses=[BMT130841911.1.2.3 BBT130755650.1.2.3.0],Conns=[delta wye],kvs=[13.8 0.22],kvas=[75.000000000 75.000000000],Taps=[1,1.000000000],XHL=3.721000000,%loadloss=1.340000000,%noloadloss=0.340000000
new transformer.1113832 Phases=3,Windings=2,Buses=[BMT154538597.1.2.3 BBT145272194.1.2.3.0],Conns=[delta wye],kvs=[13.8 0.22],kvas=[45.000000000 45.000000000],Taps=[1,1.000000000],XHL=3.636000000,%loadloss=1.522000000,%noloadloss=0.377777000
new transformer.1426748 Phases=3,Windings=2,Buses=[BMT167547618.1.2.3 BBT156501869.1.2.3.0],Conns=[delta wye],kvs=[13.8 0.22],kvas=[45.000000000 45.000000000],Taps=[1,1.000000000],XHL=3.636000000,%loadloss=1.522000000,%noloadloss=0.377777000
new transformer.1484638 Phases=3,Windings=2,Buses=[BMT168966248.1.2.3 BBT168965703.1.2.3.0],Conns=[delta wye],kvs=[13.8 0.22],kvas=[45.000000000 45.000000000],Taps=[1,1.000000000],XHL=3.636000000,%loadloss=1.522000000,%noloadloss=0.377777000
new transformer.1484858 Phases=3,Windings=2,Buses=[BMT169612971.1.2.3 BBT169005393.1.2.3.0],Conns=[delta wye],kvs=[13.8 0.22],kvas=[45.000000000 45.000000000],Taps=[1,1.000000000],XHL=3.636000000,%loadloss=1.522000000,%noloadloss=0.377777000
new transformer.1496592 Phases=3,Windings=2,Buses=[BMT171425336.1.2.3 BBT171323091.1.2.3.0],Conns=[delta wye],kvs=[13.8 0.22],kvas=[45.000000000 45.000000000],Taps=[1,1.000000000],XHL=3.636000000,%loadloss=1.522000000,%noloadloss=0.377777000
new transformer.459051 Phases=3,Windings=2,Buses=[BMT171425335.1.2.3 BBT2343605.1.2.3.0],Conns=[delta wye],kvs=[13.8 0.22],kvas=[45.000000000 45.000000000],Taps=[1,1.000000000],XHL=3.636000000,%loadloss=1.522000000,%noloadloss=0.377777000
new transformer.465365 Phases=1,Windings=3,Buses=[BMT130841925.1 BBT2442074.1.0 BBT2442074.0.2],Conns=[wye wye wye],kvs=[7.967 0.12 0.12],kvas=[15.000000000 15.000000000 15.000000000],Taps=[1,1.000000000,1.000000000],XHL=2.123000000,XHT=2.123000000,XLT=1.415000000,%loadloss=1.600000000,%noloadloss=0.400000000
new transformer.566788 Phases=3,Windings=2,Buses=[BMT154538589.1.2.3 BBT5383901.1.2.3.0],Conns=[delta wye],kvs=[13.8 0.22],kvas=[45.000000000 45.000000000],Taps=[1,1.000000000],XHL=3.636000000,%loadloss=1.522000000,%noloadloss=0.377777000
new transformer.1419084 Phases=3,Windings=2,Buses=[BMT168966251.1.2.3 BBT154848145.1.2.3.0],Conns=[delta wye],kvs=[13.8 0.22],kvas=[45.000000000 45.000000000],Taps=[1,1.000000000],XHL=3.636000000,%loadloss=1.522000000,%noloadloss=0.377777000
new transformer.397815 Phases=3,Windings=2,Buses=[BMT173134732.1.2.3 BBT1870531.1.2.3.0],Conns=[delta wye],kvs=[13.8 0.22],kvas=[75.000000000 75.000000000],Taps=[1,1.000000000],XHL=3.721000000,%loadloss=1.340000000,%noloadloss=0.340000000
new transformer.397850 Phases=3,Windings=2,Buses=[BMT153530146.1.2.3 BBT1871042.1.2.3.0],Conns=[delta wye],kvs=[13.8 0.22],kvas=[75.000000000 75.000000000],Taps=[1,1.000000000],XHL=3.721000000,%loadloss=1.340000000,%noloadloss=0.340000000
new transformer.397885 Phases=3,Windings=2,Buses=[BMT173134725.1.2.3 BBT1871483.1.2.3.0],Conns=[delta wye],kvs=[13.8 0.22],kvas=[75.000000000 75.000000000],Taps=[1,1.000000000],XHL=3.721000000,%loadloss=1.340000000,%noloadloss=0.340000000
new transformer.397899 Phases=3,Windings=2,Buses=[BMT167980247.1.2.3 BBT1871714.1.2.3.0],Conns=[delta wye],kvs=[13.8 0.22],kvas=[45.000000000 45.000000000],Taps=[1,1.000000000],XHL=3.636000000,%loadloss=1.522000000,%noloadloss=0.377777000
new transformer.397906 Phases=3,Windings=2,Buses=[BMT167980246.1.2.3 BBT1871861.1.2.3.0],Conns=[delta wye],kvs=[13.8 0.22],kvas=[75.000000000 75.000000000],Taps=[1,1.000000000],XHL=3.721000000,%loadloss=1.340000000,%noloadloss=0.340000000
new transformer.397955 Phases=3,Windings=2,Buses=[BMT169612970.1.2.3 BBT1872449.1.2.3.0],Conns=[delta wye],kvs=[13.8 0.22],kvas=[75.000000000 75.000000000],Taps=[1,1.000000000],XHL=3.721000000,%loadloss=1.340000000,%noloadloss=0.340000000
new transformer.398004 Phases=3,Windings=2,Buses=[BMT167980245.1.2.3 BBT1873044.1.2.3.0],Conns=[delta wye],kvs=[13.8 0.22],kvas=[45.000000000 45.000000000],Taps=[1,1.000000000],XHL=3.636000000,%loadloss=1.522000000,%noloadloss=0.377777000
new transformer.398053 Phases=3,Windings=2,Buses=[BMT156402257.1.2.3 BBT1873436.1.2.3.0],Conns=[delta wye],kvs=[13.8 0.22],kvas=[75.000000000 75.000000000],Taps=[1,1.000000000],XHL=3.721000000,%loadloss=1.340000000,%noloadloss=0.340000000
new transformer.398067 Phases=3,Windings=2,Buses=[BMT167980243.1.2.3 BBT1873583.1.2.3.0],Conns=[delta wye],kvs=[13.8 0.22],kvas=[75.000000000 75.000000000],Taps=[1,1.000000000],XHL=3.721000000,%loadloss=1.340000000,%noloadloss=0.340000000
new transformer.398095 Phases=1,Windings=3,Buses=[BMT173132574.2 BBT1873982.1.0 BBT1873982.0.2],Conns=[wye wye wye],kvs=[7.967 0.12 0.12],kvas=[35.000000000 35.000000000 35.000000000],Taps=[1,1.000000000,1.000000000],XHL=2.475000000,XHT=2.475000000,XLT=1.650000000,%loadloss=1.293000000,%noloadloss=0.342857000
new transformer.398123 Phases=3,Windings=2,Buses=[BMT123383460.1.2.3 BBT1874311.1.2.3.0],Conns=[delta wye],kvs=[13.8 0.22],kvas=[75.000000000 75.000000000],Taps=[1,1.000000000],XHL=3.721000000,%loadloss=1.340000000,%noloadloss=0.340000000
new transformer.398179 Phases=3,Windings=2,Buses=[BMT123383530.1.2.3 BBT1874773.1.2.3.0],Conns=[delta wye],kvs=[13.8 0.22],kvas=[45.000000000 45.000000000],Taps=[1,1.000000000],XHL=3.636000000,%loadloss=1.522000000,%noloadloss=0.377777000
new transformer.398221 Phases=3,Windings=2,Buses=[BMT147609802.1.2.3 BBT1875200.1.2.3.0],Conns=[delta wye],kvs=[13.8 0.22],kvas=[100.000000000 100.000000000],Taps=[1,1.000000000],XHL=3.771000000,%loadloss=1.218000000,%noloadloss=0.335000000
new transformer.398228 Phases=3,Windings=2,Buses=[BMT167980194.1.2.3 BBT1875270.1.2.3.0],Conns=[delta wye],kvs=[13.8 0.22],kvas=[75.000000000 75.000000000],Taps=[1,1.000000000],XHL=3.721000000,%loadloss=1.340000000,%noloadloss=0.340000000
new transformer.398312 Phases=3,Windings=2,Buses=[BMT167980192.1.2.3 BBT1876376.1.2.3.0],Conns=[delta wye],kvs=[13.8 0.22],kvas=[100.000000000 100.000000000],Taps=[1,1.000000000],XHL=3.771000000,%loadloss=1.218000000,%noloadloss=0.335000000
new transformer.398326 Phases=3,Windings=2,Buses=[BMT123383523.1.2.3 BBT1876502.1.2.3.0],Conns=[delta wye],kvs=[13.8 0.22],kvas=[75.000000000 75.000000000],Taps=[1,1.000000000],XHL=3.721000000,%loadloss=1.340000000,%noloadloss=0.340000000
new transformer.398347 Phases=3,Windings=2,Buses=[BMT123383502.1.2.3 BBT1876705.1.2.3.0],Conns=[delta wye],kvs=[13.8 0.22],kvas=[75.000000000 75.000000000],Taps=[1,1.000000000],XHL=3.721000000,%loadloss=1.340000000,%noloadloss=0.340000000
new transformer.398361 Phases=1,Windings=3,Buses=[BMT147609809.2 BBT1876901.1.0 BBT1876901.0.2],Conns=[wye wye wye],kvs=[7.967 0.12 0.12],kvas=[10.000000000 10.000000000 10.000000000],Taps=[1,1.000000000,1.000000000],XHL=1.877000000,XHT=1.877000000,XLT=1.252000000,%loadloss=1.800000000,%noloadloss=0.450000000
new transformer.398382 Phases=3,Windings=2,Buses=[BMT159434934.1.2.3 BBT1877111.1.2.3.0],Conns=[delta wye],kvs=[13.8 0.22],kvas=[100.000000000 100.000000000],Taps=[1,1.000000000],XHL=3.771000000,%loadloss=1.218000000,%noloadloss=0.335000000
new transformer.398403 Phases=1,Windings=3,Buses=[BMT159434938.3 BBT1877328.1.0 BBT1877328.0.2],Conns=[wye wye wye],kvs=[7.967 0.12 0.12],kvas=[25.000000000 25.000000000 25.000000000],Taps=[1,1.000000000,1.000000000],XHL=2.344000000,XHT=2.344000000,XLT=1.563000000,%loadloss=1.420000000,%noloadloss=0.320000000
new transformer.398417 Phases=3,Windings=2,Buses=[BMT164071583.1.2.3 BBT1877447.1.2.3.0],Conns=[delta wye],kvs=[13.8 0.22],kvas=[45.000000000 45.000000000],Taps=[1,1.000000000],XHL=3.636000000,%loadloss=1.522000000,%noloadloss=0.377777000
new transformer.398424 Phases=3,Windings=2,Buses=[BMT157376203.1.2.3 BBT1877545.1.2.3.0],Conns=[delta wye],kvs=[13.8 0.22],kvas=[100.000000000 100.000000000],Taps=[1,1.000000000],XHL=3.771000000,%loadloss=1.218000000,%noloadloss=0.335000000
new transformer.398438 Phases=3,Windings=2,Buses=[BMT123384020.1.2.3 BBT1877706.1.2.3.0],Conns=[delta wye],kvs=[13.8 0.22],kvas=[225.000000000 225.000000000],Taps=[1,1.000000000],XHL=4.864000000,%loadloss=1.060000000,%noloadloss=0.248888000
new transformer.527448 Phases=3,Windings=2,Buses=[BMT168966250.1.2.3 BBT3217681.1.2.3.0],Conns=[delta wye],kvs=[13.8 0.22],kvas=[45.000000000 45.000000000],Taps=[1,1.000000000],XHL=3.636000000,%loadloss=1.522000000,%noloadloss=0.377777000
new transformer.1390501 Phases=3,Windings=2,Buses=[BMT156402258.1.2.3 BBT148152064.1.2.3.0],Conns=[delta wye],kvs=[13.8 0.22],kvas=[45.000000000 45.000000000],Taps=[1,1.000000000],XHL=3.636000000,%loadloss=1.522000000,%noloadloss=0.377777000
new transformer.1426277 Phases=3,Windings=2,Buses=[BMT156402259.1.2.3 BBT156400923.1.2.3.0],Conns=[delta wye],kvs=[13.8 0.22],kvas=[75.000000000 75.000000000],Taps=[1,1.000000000],XHL=3.721000000,%loadloss=1.340000000,%noloadloss=0.340000000
new transformer.399131 Phases=3,Windings=2,Buses=[BMT156501953.1.2.3 BBT1885014.1.2.3.0],Conns=[delta wye],kvs=[13.8 0.22],kvas=[45.000000000 45.000000000],Taps=[1,1.000000000],XHL=3.636000000,%loadloss=1.522000000,%noloadloss=0.377777000
new transformer.399138 Phases=3,Windings=2,Buses=[BMT152289058.1.2.3 BBT1885077.1.2.3.0],Conns=[delta wye],kvs=[13.8 0.22],kvas=[45.000000000 45.000000000],Taps=[1,1.000000000],XHL=3.636000000,%loadloss=1.522000000,%noloadloss=0.377777000
new transformer.399145 Phases=1,Windings=3,Buses=[BMT123385420.3 BBT1885175.1.0 BBT1885175.0.2],Conns=[wye wye wye],kvs=[7.967 0.12 0.12],kvas=[35.000000000 35.000000000 35.000000000],Taps=[1,1.000000000,1.000000000],XHL=2.475000000,XHT=2.475000000,XLT=1.650000000,%loadloss=1.293000000,%noloadloss=0.342857000
new transformer.399152 Phases=3,Windings=2,Buses=[BMT130285383.1.2.3 BBT1885245.1.2.3.0],Conns=[delta wye],kvs=[13.8 0.22],kvas=[150.000000000 150.000000000],Taps=[1,1.000000000],XHL=3.805000000,%loadloss=1.127000000,%noloadloss=0.280000000
new transformer.399173 Phases=3,Windings=2,Buses=[BMT123385448.1.2.3 BBT1885427.1.2.3.0],Conns=[delta wye],kvs=[13.8 0.22],kvas=[75.000000000 75.000000000],Taps=[1,1.000000000],XHL=3.721000000,%loadloss=1.340000000,%noloadloss=0.340000000
new transformer.399180 Phases=3,Windings=2,Buses=[BMT156501954.1.2.3 BBT1885560.1.2.3.0],Conns=[delta wye],kvs=[13.8 0.22],kvas=[75.000000000 75.000000000],Taps=[1,1.000000000],XHL=3.721000000,%loadloss=1.340000000,%noloadloss=0.340000000
new transformer.399194 Phases=3,Windings=2,Buses=[BMT123385413.1.2.3 BBT1885784.1.2.3.0],Conns=[delta wye],kvs=[13.8 0.22],kvas=[45.000000000 45.000000000],Taps=[1,1.000000000],XHL=3.636000000,%loadloss=1.522000000,%noloadloss=0.377777000
new transformer.399201 Phases=3,Windings=2,Buses=[BMT156501916.1.2.3 BBT1885854.1.2.3.0],Conns=[delta wye],kvs=[13.8 0.22],kvas=[75.000000000 75.000000000],Taps=[1,1.000000000],XHL=3.721000000,%loadloss=1.340000000,%noloadloss=0.340000000
new transformer.399208 Phases=3,Windings=2,Buses=[BMT154538593.1.2.3 BBT1885994.1.2.3.0],Conns=[delta wye],kvs=[13.8 0.22],kvas=[45.000000000 45.000000000],Taps=[1,1.000000000],XHL=3.636000000,%loadloss=1.522000000,%noloadloss=0.377777000
new transformer.399215 Phases=3,Windings=2,Buses=[BMT172908898.1.2.3 BBT1886099.1.2.3.0],Conns=[delta wye],kvs=[13.8 0.22],kvas=[75.000000000 75.000000000],Taps=[1,1.000000000],XHL=3.721000000,%loadloss=1.340000000,%noloadloss=0.340000000
new transformer.399229 Phases=3,Windings=2,Buses=[BMT130285390.1.2.3 BBT1886288.1.2.3.0],Conns=[delta wye],kvs=[13.8 0.22],kvas=[15.000000000 15.000000000],Taps=[1,1.000000000],XHL=3.362000000,%loadloss=1.967000000,%noloadloss=0.500000000
new transformer.399236 Phases=3,Windings=2,Buses=[BMT123385476.1.2.3 BBT1886337.1.2.3.0],Conns=[delta wye],kvs=[13.8 0.22],kvas=[30.000000000 30.000000000],Taps=[1,1.000000000],XHL=3.564000000,%loadloss=1.667000000,%noloadloss=0.433333000
new transformer.399243 Phases=3,Windings=2,Buses=[BMT123385434.1.2.3 BBT1886386.1.2.3.0],Conns=[delta wye],kvs=[13.8 0.22],kvas=[45.000000000 45.000000000],Taps=[1,1.000000000],XHL=3.636000000,%loadloss=1.522000000,%noloadloss=0.377777000
new transformer.399250 Phases=3,Windings=2,Buses=[BMT152289060.1.2.3 BBT1886400.1.2.3.0],Conns=[delta wye],kvs=[13.8 0.22],kvas=[75.000000000 75.000000000],Taps=[1,1.000000000],XHL=3.721000000,%loadloss=1.340000000,%noloadloss=0.340000000
new transformer.399271 Phases=3,Windings=2,Buses=[BMT154538595.1.2.3 BBT1886624.1.2.3.0],Conns=[delta wye],kvs=[13.8 0.22],kvas=[45.000000000 45.000000000],Taps=[1,1.000000000],XHL=3.636000000,%loadloss=1.522000000,%noloadloss=0.377777000
new transformer.399278 Phases=3,Windings=2,Buses=[BMT156501918.1.2.3 BBT1886729.1.2.3.0],Conns=[delta wye],kvs=[13.8 0.22],kvas=[75.000000000 75.000000000],Taps=[1,1.000000000],XHL=3.721000000,%loadloss=1.340000000,%noloadloss=0.340000000
new transformer.399292 Phases=3,Windings=2,Buses=[BMT154538603.1.2.3 BBT1886834.1.2.3.0],Conns=[delta wye],kvs=[13.8 0.22],kvas=[75.000000000 75.000000000],Taps=[1,1.000000000],XHL=3.721000000,%loadloss=1.340000000,%noloadloss=0.340000000
new transformer.399299 Phases=3,Windings=2,Buses=[BMT168328073.1.2.3 BBT1886904.1.2.3.0],Conns=[delta wye],kvs=[13.8 0.22],kvas=[75.000000000 75.000000000],Taps=[1,1.000000000],XHL=3.721000000,%loadloss=1.340000000,%noloadloss=0.340000000
new transformer.399306 Phases=3,Windings=2,Buses=[BMT154538599.1.2.3 BBT1886988.1.2.3.0],Conns=[delta wye],kvs=[13.8 0.22],kvas=[45.000000000 45.000000000],Taps=[1,1.000000000],XHL=3.636000000,%loadloss=1.522000000,%noloadloss=0.377777000
new transformer.399313 Phases=3,Windings=2,Buses=[BMT154538587.1.2.3 BBT1887107.1.2.3.0],Conns=[delta wye],kvs=[13.8 0.22],kvas=[45.000000000 45.000000000],Taps=[1,1.000000000],XHL=3.636000000,%loadloss=1.522000000,%noloadloss=0.377777000
new transformer.399320 Phases=3,Windings=2,Buses=[BMT123385483.1.2.3 BBT1887121.1.2.3.0],Conns=[delta wye],kvs=[13.8 0.22],kvas=[30.000000000 30.000000000],Taps=[1,1.000000000],XHL=3.564000000,%loadloss=1.667000000,%noloadloss=0.433333000
new transformer.399334 Phases=3,Windings=2,Buses=[BMT156501919.1.2.3 BBT1887282.1.2.3.0],Conns=[delta wye],kvs=[13.8 0.22],kvas=[75.000000000 75.000000000],Taps=[1,1.000000000],XHL=3.721000000,%loadloss=1.340000000,%noloadloss=0.340000000
new transformer.399341 Phases=3,Windings=2,Buses=[BMT172908901.1.2.3 BBT1887345.1.2.3.0],Conns=[delta wye],kvs=[13.8 0.22],kvas=[75.000000000 75.000000000],Taps=[1,1.000000000],XHL=3.721000000,%loadloss=1.340000000,%noloadloss=0.340000000
new transformer.399369 Phases=3,Windings=2,Buses=[BMT154538602.1.2.3 BBT1887597.1.2.3.0],Conns=[delta wye],kvs=[13.8 0.22],kvas=[45.000000000 45.000000000],Taps=[1,1.000000000],XHL=3.636000000,%loadloss=1.522000000,%noloadloss=0.377777000
new transformer.399376 Phases=3,Windings=2,Buses=[BMT167547610.1.2.3 BBT1887646.1.2.3.0],Conns=[delta wye],kvs=[13.8 0.22],kvas=[75.000000000 75.000000000],Taps=[1,1.000000000],XHL=3.721000000,%loadloss=1.340000000,%noloadloss=0.340000000
new transformer.399390 Phases=1,Windings=3,Buses=[BMT123385497.1 BBT1887793.1.0 BBT1887793.0.2],Conns=[wye wye wye],kvs=[7.967 0.12 0.12],kvas=[35.000000000 35.000000000 35.000000000],Taps=[1,1.000000000,1.000000000],XHL=2.475000000,XHT=2.475000000,XLT=1.650000000,%loadloss=1.293000000,%noloadloss=0.342857000
new transformer.405319 Phases=1,Windings=3,Buses=[BMT173134736.3 BBT1918390.1.0 BBT1918390.0.2],Conns=[wye wye wye],kvs=[7.967 0.12 0.12],kvas=[35.000000000 35.000000000 35.000000000],Taps=[1,1.000000000,1.000000000],XHL=2.475000000,XHT=2.475000000,XLT=1.650000000,%loadloss=1.293000000,%noloadloss=0.342857000
