2024_89_CemigReconfigurationCases/1_AlimsCemig/MRND218/MRND218SegmentosBT.dss
new line.18697598 bus1=BBT148506512.1.2.3.0,bus2=BBT1886778.1.2.3.0,Phases=3,Linecode=BT107_BT106_7_3_1,Length=0.016554000,Units=km
new line.18697918 bus1=BBT1881668.1.2.3.0,bus2=BBT148514365.1.2.3.0,Phases=3,Linecode=BT803_BT803_4_3_4,Length=0.021956000,Units=km
new line.18961408 bus1=BBT156393421.1.2.3.0,bus2=BBT2029676.1.2.3.0,Phases=3,Linecode=BT107_BT107_7_3_1,Length=0.019028000,Units=km
new line.18961686 bus1=BBT156400923.1.2.3.0,bus2=BBT1873443.1.2.3.0,Phases=3,Linecode=BT513_BT513_7_3_1,Length=0.000501000,Units=km
new line.19184615 bus1=BBT1881717.1.2.3.0,bus2=BBT164054401.1.2.3.0,Phases=3,Linecode=BT107_BT107_7_3_1,Length=0.020126000,Units=km
new line.19184630 bus1=BBT1881717.1.2.3.0,bus2=BBT164054976.1.2.3.0,Phases=3,Linecode=BT513_BT513_5_3_1,Length=0.004473000,Units=km
new line.19185193 bus1=BBT164070655.1.2.0,bus2=BBT2233327.1.2.0,Phases=2,Linecode=BT107_BT107_7_2_1,Length=0.021026000,Units=km
new line.19185202 bus1=BBT164071167.1.2.0,bus2=BBT1879106.1.2.0,Phases=2,Linecode=BT107_BT107_7_2_1,Length=0.023197000,Units=km
new line.19234128 bus1=BBT165584958.1.2.3.0,bus2=BBT3217751.1.2.3.0,Phases=3,Linecode=BT518_BT518_7_3_1,Length=0.000501000,Units=km
new line.19330366 bus1=BBT168328053.1.2.3.0,bus2=BBT1886960.1.2.3.0,Phases=3,Linecode=BT805_BT805_4_3_4,Length=0.014143000,Units=km
new line.19430870 bus1=BBT171323091.1.2.3.0,bus2=BBT2343647.1.2.3.0,Phases=3,Linecode=BT521_BT521_7_3_1,Length=0.000501000,Units=km
new line.19487761 bus1=BBT1879771.1.2.3.0,bus2=BBT173183525.1.2.3.0,Phases=3,Linecode=BT521_BT521_5_3_1,Length=0.005001000,Units=km
new line.19487763 bus1=BBT173183525.1.2.3.0,bus2=BBT173183530.1.2.3.0,Phases=3,Linecode=BT521_BT521_5_3_1,Length=0.024002000,Units=km
new line.2320680 bus1=BBT1871056.1.2.3.0,bus2=BBT164042309.1.2.3.0,Phases=3,Linecode=BT803_BT803_4_3_4,Length=0.031578000,Units=km
new line.2320687 bus1=BBT1871063.1.2.3.0,bus2=BBT1871049.1.2.3.0,Phases=3,Linecode=BT803_BT803_4_3_4,Length=0.035905000,Units=km
new line.2320694 bus1=BBT1871070.1.2.3.0,bus2=BBT1871063.1.2.3.0,Phases=3,Linecode=BT803_BT803_4_3_4,Length=0.029735000,Units=km
new line.2320701 bus1=BBT1871077.1.2.3.0,bus2=BBT1871070.1.2.3.0,Phases=3,Linecode=BT803_BT803_4_3_4,Length=0.034931000,Units=km
new line.2320708 bus1=BBT1871084.1.2.3.0,bus2=BBT1871077.1.2.3.0,Phases=3,Linecode=BT803_BT803_4_3_4,Length=0.036128000,Units=km
new line.2320715 bus1=BBT1871091.1.2.3.0,bus2=BBT1871084.1.2.3.0,Phases=3,Linecode=BT803_BT803_4_3_4,Length=0.027895000,Units=km
new line.2320722 bus1=BBT1871098.1.2.3.0,bus2=BBT1871091.1.2.3.0,Phases=3,Linecode=BT805_BT805_4_3_4,Length=0.036499000,Units=km
new line.2320729 bus1=BBT1871042.1.2.3.0,bus2=BBT1871098.1.2.3.0,Phases=3,Linecode=BT513_BT513_7_3_1,Length=0.000501000,Units=km
new line.2320736 bus1=BBT1871098.1.2.3.0,bus2=BBT1871105.1.2.3.0,Phases=3,Linecode=BT805_BT805_4_3_4,Length=0.037124000,Units=km
new line.2320743 bus1=BBT1871105.1.2.3.0,bus2=BBT1871112.1.2.3.0,Phases=3,Linecode=BT805_BT805_4_3_4,Length=0.037486000,Units=km
new line.2320750 bus1=BBT1871112.1.2.3.0,bus2=BBT1871119.1.2.3.0,Phases=3,Linecode=BT805_BT805_4_3_4,Length=0.040314000,Units=km
new line.2321100 bus1=BBT1871490.1.2.3.0,bus2=BBT1871497.1.2.3.0,Phases=3,Linecode=BT107_BT107_7_3_1,Length=0.021262000,Units=km
new line.2321114 bus1=BBT168872810.1.2.3.0,bus2=BBT1871511.1.2.3.0,Phases=3,Linecode=BT803_BT803_4_3_4,Length=0.003163000,Units=km
new line.2321121 bus1=BBT1871483.1.2.3.0,bus2=BBT1871504.1.2.3.0,Phases=3,Linecode=BT513_BT513_7_3_1,Length=0.000501000,Units=km
new line.2321128 bus1=BBT1871504.1.2.3.0,bus2=BBT1871518.1.2.3.0,Phases=3,Linecode=BT803_BT803_4_3_4,Length=0.033244000,Units=km
new line.2321135 bus1=BBT1871504.1.2.3.0,bus2=BBT2227230.1.2.3.0,Phases=3,Linecode=BT803_BT803_4_3_4,Length=0.027589000,Units=km
new line.2321142 bus1=BBT168872883.1.2.3.0,bus2=BBT1871525.1.2.3.0,Phases=3,Linecode=BT107_BT107_7_3_1,Length=0.037486000,Units=km
new line.2321149 bus1=BBT1871511.1.2.3.0,bus2=BBT82446417.1.2.3.0,Phases=3,Linecode=BT803_BT803_4_3_4,Length=0.026629000,Units=km
new line.2321156 bus1=BBT6269709.1.2.3.0,bus2=BBT1871532.1.2.3.0,Phases=3,Linecode=BT107_BT107_7_3_1,Length=0.019211000,Units=km
new line.2321163 bus1=BBT1871518.1.2.3.0,bus2=BBT6269709.1.2.3.0,Phases=3,Linecode=BT803_BT803_4_3_4,Length=0.002829000,Units=km
new line.2321170 bus1=BBT1871532.1.2.3.0,bus2=BBT1871546.1.2.3.0,Phases=3,Linecode=BT107_BT107_7_3_1,Length=0.030482000,Units=km
new line.2321177 bus1=BBT1871539.1.2.3.0,bus2=BBT1871553.1.2.3.0,Phases=3,Linecode=BT810_BT810_4_3_4,Length=0.038900000,Units=km
new line.2321184 bus1=BBT1871539.1.2.3.0,bus2=BBT2227447.1.2.3.0,Phases=3,Linecode=BT503_BT503_5_3_1,Length=0.007072000,Units=km
new line.2321191 bus1=BBT1871546.1.2.3.0,bus2=BBT2256511.1.2.3.0,Phases=3,Linecode=BT107_BT107_7_3_1,Length=0.031830000,Units=km
new line.2321198 bus1=BBT1871546.1.2.3.0,bus2=BBT1871560.1.2.3.0,Phases=3,Linecode=BT107_BT107_7_3_1,Length=0.031830000,Units=km
new line.2321205 bus1=BBT1871560.1.2.3.0,bus2=BBT1871567.1.2.3.0,Phases=3,Linecode=BT107_BT107_7_3_1,Length=0.027588000,Units=km
new line.2321212 bus1=BBT1871567.1.2.3.0,bus2=BBT1871574.1.2.3.0,Phases=3,Linecode=BT107_BT107_7_3_1,Length=0.029071000,Units=km
new line.2321338 bus1=BBT1871728.1.2.3.0,bus2=BBT1871721.1.2.3.0,Phases=3,Linecode=BT107_BT106_7_3_1,Length=0.031387000,Units=km
new line.2321345 bus1=BBT1871728.1.2.3.0,bus2=BBT1871756.1.2.3.0,Phases=3,Linecode=BT803_BT803_4_3_4,Length=0.035231000,Units=km
new line.2321352 bus1=BBT1871735.1.2.3.0,bus2=BBT1871728.1.2.3.0,Phases=3,Linecode=BT108_BT107_7_3_1,Length=0.005001000,Units=km
new line.2321359 bus1=BBT1871889.1.2.3.0,bus2=BBT1871882.1.2.3.0,Phases=3,Linecode=BT803_BT803_4_3_4,Length=0.017890000,Units=km
new line.2321373 bus1=BBT1871749.1.2.3.0,bus2=BBT1871735.1.2.3.0,Phases=3,Linecode=BT108_BT107_7_3_1,Length=0.037218000,Units=km
new line.2321380 bus1=BBT1871714.1.2.3.0,bus2=BBT1871749.1.2.3.0,Phases=3,Linecode=BT508_BT508_7_3_1,Length=0.000501000,Units=km
new line.2321387 bus1=BBT1871749.1.2.3.0,bus2=BBT1871784.1.2.3.0,Phases=3,Linecode=BT108_BT107_7_3_1,Length=0.036718000,Units=km
new line.2321394 bus1=BBT1871756.1.2.3.0,bus2=BBT1871770.1.2.3.0,Phases=3,Linecode=BT803_BT803_4_3_4,Length=0.034988000,Units=km
new line.2321401 bus1=BBT1871763.1.2.3.0,bus2=BBT1871742.1.2.3.0,Phases=3,Linecode=BT107_BT107_7_3_1,Length=0.028795000,Units=km
new line.2321408 bus1=BBT1871770.1.2.3.0,bus2=BBT1871777.1.2.3.0,Phases=3,Linecode=BT107_BT106_7_3_1,Length=0.005001000,Units=km
new line.2321415 bus1=BBT1871770.1.2.3.0,bus2=BBT1871805.1.2.3.0,Phases=3,Linecode=BT107_BT106_7_3_1,Length=0.036895000,Units=km
new line.2321422 bus1=BBT1871777.1.2.3.0,bus2=BBT1871798.1.2.3.0,Phases=3,Linecode=BT107_BT106_7_3_1,Length=0.038082000,Units=km
new line.2321429 bus1=BBT1871784.1.2.3.0,bus2=BBT1871791.1.2.3.0,Phases=3,Linecode=BT108_BT107_7_3_1,Length=0.008063000,Units=km
new line.2321436 bus1=BBT1871791.1.2.3.0,bus2=BBT1871763.1.2.3.0,Phases=3,Linecode=BT107_BT107_7_3_1,Length=0.034061000,Units=km
new line.2321443 bus1=BBT2029669.1.2.3.0,bus2=BBT156394390.1.2.3.0,Phases=3,Linecode=BT107_BT107_7_3_1,Length=0.007072000,Units=km
new line.2321492 bus1=BBT1871875.1.2.3.0,bus2=BBT1871868.1.2.3.0,Phases=3,Linecode=BT803_BT803_4_3_4,Length=0.027297000,Units=km
new line.2321499 bus1=BBT1871882.1.2.3.0,bus2=BBT1871875.1.2.3.0,Phases=3,Linecode=BT803_BT803_4_3_4,Length=0.033618000,Units=km
new line.10007913 bus1=BBT145271844.1.2.3.0,bus2=BBT3167680.1.2.3.0,Phases=3,Linecode=BT803_BT803_4_3_4,Length=0.028304000,Units=km
new line.10007920 bus1=BBT145272194.1.2.3.0,bus2=BBT145271844.1.2.3.0,Phases=3,Linecode=BT521_BT521_7_3_1,Length=0.000501000,Units=km
new line.10007941 bus1=BBT1887037.1.2.3.0,bus2=BBT145273083.1.2.3.0,Phases=3,Linecode=BT803_BT803_4_3_4,Length=0.029019000,Units=km
new line.18715667 bus1=BBT2473420.1.2.3.0,bus2=BBT149002886.1.2.3.0,Phases=3,Linecode=BT805_BT805_4_3_4,Length=0.045357000,Units=km
new line.18715717 bus1=BBT130692426.1.2.3.0,bus2=BBT149003344.1.2.3.0,Phases=3,Linecode=BT803_BT803_4_3_4,Length=0.037165000,Units=km
new line.18715718 bus1=BBT149003344.1.2.3.0,bus2=BBT149003348.1.2.3.0,Phases=3,Linecode=BT803_BT803_4_3_4,Length=0.036772000,Units=km
new line.18857584 bus1=BBT1881591.1.2.3.0,bus2=BBT153187232.1.2.3.0,Phases=3,Linecode=BT803_BT803_4_3_4,Length=0.029123000,Units=km
new line.18893819 bus1=BBT154293389.1.2.0,bus2=BBT2028472.1.2.0,Phases=2,Linecode=BT807_BT807_4_2_3,Length=0.008063000,Units=km
new line.19095189 bus1=BBT2199713.1.2.3.0,bus2=BBT160360266.1.2.3.0,Phases=3,Linecode=BT805_BT805_4_3_4,Length=0.023347000,Units=km
new line.19095200 bus1=BBT160361011.1.2.3.0,bus2=BBT129877458.1.2.3.0,Phases=3,Linecode=BT518_BT518_7_3_1,Length=0.000501000,Units=km
new line.19095213 bus1=BBT1887681.1.2.3.0,bus2=BBT160361859.1.2.3.0,Phases=3,Linecode=BT805_BT805_4_3_4,Length=0.026079000,Units=km
new line.19335942 bus1=BBT168520872.1.2.3.0,bus2=BBT1879785.1.2.3.0,Phases=3,Linecode=BT107_BT107_7_3_1,Length=0.019237000,Units=km
new line.2328478 bus1=BBT1878623.1.2.3.0,bus2=BBT1878616.1.2.3.0,Phases=3,Linecode=BT108_BT107_7_3_1,Length=0.037339000,Units=km
new line.2328485 bus1=BBT1878630.1.2.3.0,bus2=BBT1878623.1.2.3.0,Phases=3,Linecode=BT108_BT107_7_3_1,Length=0.033544000,Units=km
new line.2328492 bus1=BBT1878609.1.2.3.0,bus2=BBT1878630.1.2.3.0,Phases=3,Linecode=BT513_BT513_7_3_1,Length=0.000501000,Units=km
new line.2328499 bus1=BBT1878630.1.2.3.0,bus2=BBT1878637.1.2.3.0,Phases=3,Linecode=BT108_BT107_7_3_1,Length=0.036348000,Units=km
new line.2328506 bus1=BBT1878637.1.2.3.0,bus2=BBT3963468.1.2.3.0,Phases=3,Linecode=BT805_BT805_4_3_4,Length=0.033379000,Units=km
new line.2328513 bus1=BBT3963468.1.2.3.0,bus2=BBT1878651.1.2.3.0,Phases=3,Linecode=BT805_BT805_4_3_4,Length=0.031403000,Units=km
new line.2328716 bus1=BBT1878868.1.2.3.0,bus2=BBT1878882.1.2.3.0,Phases=3,Linecode=BT107_BT107_7_3_1,Length=0.036677000,Units=km
new line.2328723 bus1=BBT1878875.1.2.3.0,bus2=BBT1878868.1.2.3.0,Phases=3,Linecode=BT107_BT107_7_3_1,Length=0.034441000,Units=km
new line.2328730 bus1=BBT1878882.1.2.3.0,bus2=BBT1878896.1.2.3.0,Phases=3,Linecode=BT107_BT107_7_3_1,Length=0.033108000,Units=km
new line.2328737 bus1=BBT1878889.1.2.3.0,bus2=BBT1878875.1.2.3.0,Phases=3,Linecode=BT108_BT108_7_3_1,Length=0.032652000,Units=km
new line.2328744 bus1=BBT1878903.1.2.3.0,bus2=BBT1878931.1.2.3.0,Phases=3,Linecode=BT107_BT107_7_3_1,Length=0.036677000,Units=km
new line.2328751 bus1=BBT1878910.1.2.3.0,bus2=BBT1878889.1.2.3.0,Phases=3,Linecode=BT108_BT108_7_3_1,Length=0.033544000,Units=km
new line.2328758 bus1=BBT1878861.1.2.3.0,bus2=BBT1878910.1.2.3.0,Phases=3,Linecode=BT521_BT521_7_3_1,Length=0.000501000,Units=km
new line.2328765 bus1=BBT1878910.1.2.3.0,bus2=BBT1878924.1.2.3.0,Phases=3,Linecode=BT108_BT108_7_3_1,Length=0.028638000,Units=km
new line.2328772 bus1=BBT1878917.1.2.3.0,bus2=BBT1878903.1.2.3.0,Phases=3,Linecode=BT107_BT107_7_3_1,Length=0.036252000,Units=km
new line.2328779 bus1=BBT1878924.1.2.3.0,bus2=BBT1878917.1.2.3.0,Phases=3,Linecode=BT108_BT108_7_3_1,Length=0.030416000,Units=km
new line.2328786 bus1=BBT1878931.1.2.3.0,bus2=BBT1878938.1.2.3.0,Phases=3,Linecode=BT107_BT107_7_3_1,Length=0.029969000,Units=km
new line.2328800 bus1=BBT1878966.1.2.3.0,bus2=BBT1878952.1.2.3.0,Phases=3,Linecode=BT803_BT803_4_3_4,Length=0.022474000,Units=km
new line.2328807 bus1=BBT1878973.1.2.3.0,bus2=BBT1878966.1.2.3.0,Phases=3,Linecode=BT803_BT803_4_3_4,Length=0.032759000,Units=km
new line.2328814 bus1=BBT1878980.1.2.0,bus2=BBT1878959.1.2.0,Phases=2,Linecode=BT107_BT107_7_2_1,Length=0.035131000,Units=km
new line.2328821 bus1=BBT1878987.1.2.0,bus2=BBT1878994.1.2.0,Phases=2,Linecode=BT108_BT108_7_2_1,Length=0.043050000,Units=km
new line.2328835 bus1=BBT1879001.1.2.0,bus2=BBT1878987.1.2.0,Phases=2,Linecode=BT108_BT108_7_2_1,Length=0.035358000,Units=km
new line.2328842 bus1=BBT1879008.1.2.0,bus2=BBT1879001.1.2.0,Phases=2,Linecode=BT108_BT108_7_2_1,Length=0.024741000,Units=km
new line.2328849 bus1=BBT1878945.1.2.0,bus2=BBT1879008.1.2.0,Phases=2,Linecode=BT509_BT509_7_2_1,Length=0.000501000,Units=km
new line.2328856 bus1=BBT1879008.1.2.0,bus2=BBT1879015.1.2.0,Phases=2,Linecode=BT108_BT108_7_2_1,Length=0.020882000,Units=km
new line.2328863 bus1=BBT128656728.1.2.0,bus2=BBT5022617.1.2.0,Phases=2,Linecode=BT808_BT808_4_2_3,Length=0.010001000,Units=km
new line.2328870 bus1=BBT1879015.1.2.0,bus2=BBT1879022.1.2.0,Phases=2,Linecode=BT108_BT108_7_2_1,Length=0.032576000,Units=km
new line.2328877 bus1=BBT1879022.1.2.0,bus2=BBT1878980.1.2.0,Phases=2,Linecode=BT107_BT107_7_2_1,Length=0.037339000,Units=km
new line.2328884 bus1=BBT1879022.1.2.0,bus2=BBT1879029.1.2.0,Phases=2,Linecode=BT108_BT108_7_2_1,Length=0.037646000,Units=km
new line.2328898 bus1=BBT1879029.1.2.0,bus2=BBT2233299.1.2.0,Phases=2,Linecode=BT107_BT107_7_2_1,Length=0.039208000,Units=km
new line.2328912 bus1=BBT1880786.1.2.3.0,bus2=BBT1880772.1.2.3.0,Phases=3,Linecode=BT810_BT810_4_3_4,Length=0.031403000,Units=km
new line.2328926 bus1=BBT1879071.1.2.0,bus2=BBT1879064.1.2.0,Phases=2,Linecode=BT107_BT107_7_2_1,Length=0.021842000,Units=km
new line.2328933 bus1=BBT1879071.1.2.0,bus2=BBT1879057.1.2.0,Phases=2,Linecode=BT107_BT107_7_2_1,Length=0.018683000,Units=km
new line.2328940 bus1=BBT1879071.1.2.0,bus2=BBT164070655.1.2.0,Phases=2,Linecode=BT107_BT107_7_2_1,Length=0.010051000,Units=km
new line.2328947 bus1=BBT1879085.1.2.0,bus2=BBT1879071.1.2.0,Phases=2,Linecode=BT107_BT107_7_2_1,Length=0.024599000,Units=km
new line.2328954 bus1=BBT1879092.1.2.0,bus2=BBT1879078.1.2.0,Phases=2,Linecode=BT108_BT108_7_2_1,Length=0.021403000,Units=km
new line.2328961 bus1=BBT1879099.1.2.0,bus2=BBT1879085.1.2.0,Phases=2,Linecode=BT107_BT107_7_2_1,Length=0.029157000,Units=km
new line.2328968 bus1=BBT1879113.1.2.0,bus2=BBT1879092.1.2.0,Phases=2,Linecode=BT108_BT108_7_2_1,Length=0.027787000,Units=km
new line.2328975 bus1=BBT1879113.1.2.0,bus2=BBT1879099.1.2.0,Phases=2,Linecode=BT107_BT107_7_2_1,Length=0.006325000,Units=km
new line.2328982 bus1=BBT1879120.1.2.0,bus2=BBT1879113.1.2.0,Phases=2,Linecode=BT108_BT108_7_2_1,Length=0.026872000,Units=km
new line.2328989 bus1=BBT1879050.1.2.0,bus2=BBT1879120.1.2.0,Phases=2,Linecode=BT513_BT513_7_2_1,Length=0.000501000,Units=km
new line.2328996 bus1=BBT1879120.1.2.0,bus2=BBT1879127.1.2.0,Phases=2,Linecode=BT108_BT108_7_2_1,Length=0.033529000,Units=km
new line.2329003 bus1=BBT1879127.1.2.0,bus2=BBT164071167.1.2.0,Phases=2,Linecode=BT107_BT107_7_2_1,Length=0.007072000,Units=km
new line.2329010 bus1=BBT1879127.1.2.0,bus2=BBT1879134.1.2.0,Phases=2,Linecode=BT108_BT108_7_2_1,Length=0.022563000,Units=km
new line.2329017 bus1=BBT1879134.1.2.0,bus2=BBT2233292.1.2.0,Phases=2,Linecode=BT108_BT108_7_2_1,Length=0.010051000,Units=km
...