2024_89_CemigReconfigurationCases/1_AlimsCemig/MRND218/MRND218Ramais.dss
new line.RML10032620 bus1=BBT1887352.1.2.3.0,bus2=RML1060032620.1.2.3.0,Phases=3,Linecode=CABBTG10_4_3,Length=0.017000000,Units=km
new line.RML10032915 bus1=BBT1880933.1.3.0,bus2=RML1060032915.1.3.0,Phases=2,Linecode=CABBTG05_4_2,Length=0.017000000,Units=km
new line.RML10033356 bus1=BBT3217695.1.2.3.0,bus2=RML1060033356.1.2.3.0,Phases=3,Linecode=CABBTG07_4_3,Length=0.017000000,Units=km
new line.RML10037921 bus1=BBT2197599.2.3.0,bus2=RML1060037921.2.3.0,Phases=2,Linecode=CABBTG05_4_2,Length=0.017000000,Units=km
new line.RML10038754 bus1=BBT1886876.1.2.3.0,bus2=RML1060038754.1.2.3.0,Phases=3,Linecode=CABBTG06_4_3,Length=0.017000000,Units=km
new line.RML10039325 bus1=BBT3643855.2.3.0,bus2=RML1060039325.2.3.0,Phases=2,Linecode=CABBTG05_4_2,Length=0.017000000,Units=km
new line.RML10039392 bus1=BBT2343724.1.2.3.0,bus2=RML1060039392.1.2.3.0,Phases=3,Linecode=CABBTG06_4_3,Length=0.017000000,Units=km
new line.RML10039530 bus1=BBT1878343.2.3.0,bus2=RML1060039530.2.3.0,Phases=2,Linecode=CABBTG05_4_2,Length=0.017000000,Units=km
new line.RML10040437 bus1=BBT1886967.1.2.3.0,bus2=RML1060040437.1.2.3.0,Phases=3,Linecode=CABBTG06_4_3,Length=0.017000000,Units=km
new line.RML10043026 bus1=BBT144091049.1.0,bus2=RML1060043026.1.0,Phases=1,Linecode=CABBTG03_4_1,Length=0.017000000,Units=km
new line.RML10050263 bus1=BBT1887695.1.2.0,bus2=RML1060050263.1.2.0,Phases=2,Linecode=CABBTG05_4_2,Length=0.017000000,Units=km
new line.RML10050756 bus1=BBT1882116.1.2.0,bus2=RML1060050756.1.2.0,Phases=2,Linecode=CABBTG05_4_2,Length=0.012000000,Units=km
new line.RML10056865 bus1=BBT163403219.1.2.3.0,bus2=RML1060056865.1.2.3.0,Phases=3,Linecode=CABBTG06_4_3,Length=0.017000000,Units=km
new line.RML10056868 bus1=BBT2473420.1.2.0,bus2=RML1060056868.1.2.0,Phases=2,Linecode=CABBTG05_4_2,Length=0.017000000,Units=km
new line.RML10057316 bus1=BBT2123742.1.2.0,bus2=RML1060057316.1.2.0,Phases=2,Linecode=CABBTG05_4_2,Length=0.017000000,Units=km
new line.RML10058200 bus1=BBT2442095.1.2.0,bus2=RML1060058200.1.2.0,Phases=2,Linecode=CABBTG05_4_2,Length=0.017000000,Units=km
new line.RML10059558 bus1=BBT2828537.1.2.3.0,bus2=RML1060059558.1.2.3.0,Phases=3,Linecode=CABBTG06_4_3,Length=0.017000000,Units=km
new line.RML10060411 bus1=BBT163403193.1.2.0,bus2=RML1060060411.1.2.0,Phases=2,Linecode=CABBTG05_4_2,Length=0.017000000,Units=km
new line.RML10060412 bus1=BBT1883971.1.2.3.0,bus2=RML1060060412.1.2.3.0,Phases=3,Linecode=CABBTG06_4_3,Length=0.017000000,Units=km
new line.RML10060416 bus1=BBT1883586.1.2.0,bus2=RML1060060416.1.2.0,Phases=2,Linecode=CABBTG05_4_2,Length=0.017000000,Units=km
new line.RML10062017 bus1=BBT1871756.1.2.3.0,bus2=RML1060062017.1.2.3.0,Phases=3,Linecode=CABBTG06_4_3,Length=0.017000000,Units=km
new line.RML10062032 bus1=BBT1871756.1.2.0,bus2=RML1060062032.1.2.0,Phases=2,Linecode=CABBTG05_4_2,Length=0.017000000,Units=km
new line.RML10062053 bus1=BBT1873457.1.2.0,bus2=RML1060062053.1.2.0,Phases=2,Linecode=CABBTG05_4_2,Length=0.029000000,Units=km
new line.RML10062240 bus1=BBT3217695.1.2.0,bus2=RML1060062240.1.2.0,Phases=2,Linecode=CABBTG05_4_2,Length=0.017000000,Units=km
new line.RML10063379 bus1=BBT1879904.1.2.3.0,bus2=RML1060063379.1.2.3.0,Phases=3,Linecode=CABBTG06_4_3,Length=0.017000000,Units=km
new line.RML10063412 bus1=BBT1880443.1.2.3.0,bus2=RML1060063412.1.2.3.0,Phases=3,Linecode=CABBTG06_4_3,Length=0.017000000,Units=km
new line.RML10063945 bus1=BBT2343766.1.2.3.0,bus2=RML1060063945.1.2.3.0,Phases=3,Linecode=CABBTG06_4_3,Length=0.010000000,Units=km
new line.RML10068073 bus1=BBT1874003.1.2.0,bus2=RML1060068073.1.2.0,Phases=2,Linecode=CABBTG05_4_2,Length=0.012000000,Units=km
new line.RML10068138 bus1=BBT148514365.1.2.3.0,bus2=RML1060068138.1.2.3.0,Phases=3,Linecode=CABBTG07_4_3,Length=0.012000000,Units=km
new line.RML10083294 bus1=BBT3620874.1.2.0,bus2=RML1060083294.1.2.0,Phases=2,Linecode=CABBTG05_4_2,Length=0.017000000,Units=km
new line.RML10083407 bus1=BBT2343640.1.0,bus2=RML1060083407.1.0,Phases=1,Linecode=CABBTG02_4_1,Length=0.020000000,Units=km
new line.RML10087301 bus1=BBT3217765.1.3.0,bus2=RML1060087301.1.3.0,Phases=2,Linecode=CABBTG04_4_2,Length=0.017000000,Units=km
new line.RML10092664 bus1=BBT1881031.1.2.3.0,bus2=RML1060092664.1.2.3.0,Phases=3,Linecode=CABBTG06_4_3,Length=0.017000000,Units=km
new line.RML10092988 bus1=BBT3650197.1.2.0,bus2=RML1060092988.1.2.0,Phases=2,Linecode=CABBTG05_4_2,Length=0.017000000,Units=km
new line.RML10093531 bus1=BBT2197543.3.0,bus2=RML1060093531.3.0,Phases=1,Linecode=CABBTG02_4_1,Length=0.012000000,Units=km
new line.RML10097124 bus1=BBT1879435.1.2.0,bus2=RML1060097124.1.2.0,Phases=2,Linecode=CABBTG05_4_2,Length=0.017000000,Units=km
new line.RML10107950 bus1=BBT1886309.3.0,bus2=RML1060107950.3.0,Phases=1,Linecode=CABBTG02_4_1,Length=0.010000000,Units=km
new line.RML10113926 bus1=BBT1887289.1.2.0,bus2=RML1060113926.1.2.0,Phases=2,Linecode=CABBTG05_4_2,Length=0.017000000,Units=km
...